
PSHELL   1       1       .001    1               1
$ Pset: "2D_Shell_Al6061" will be imported as: "pshell.1"
CQUAD4   3000    1       1000    1001    1181    1034
CQUAD4   3001    1       1001    1002    1182    1181
CQUAD4   3002    1       1002    1003    1183    1182
CQUAD4   3003    1       1003    1004    1184    1183
CQUAD4   3004    1       1004    1005    1185    1184
CQUAD4   3005    1       1005    1006    1186    1185
CQUAD4   3006    1       1006    1007    1021    1186
CQUAD4   3007    1       1034    1181    1187    1033
CQUAD4   3008    1       1181    1182    1188    1187
CQUAD4   3009    1       1182    1183    1189    1188
CQUAD4   3010    1       1183    1184    1190    1189
CQUAD4   3011    1       1184    1185    1191    1190
CQUAD4   3012    1       1185    1186    1192    1191
CQUAD4   3013    1       1186    1021    1020    1192
CQUAD4   3014    1       1033    1187    1193    1032
CQUAD4   3015    1       1187    1188    1194    1193
CQUAD4   3016    1       1188    1189    1195    1194
CQUAD4   3017    1       1189    1190    1196    1195
CQUAD4   3018    1       1190    1191    1197    1196
CQUAD4   3019    1       1191    1192    1198    1197
$ ... 536 like lines cut
$ Elements and Element Properties for region : 1D_Beam_Ext
PBARL    2       1               BAR
         .003    .005
$ Pset: "1D_Beam_Ext" will be imported as: "pbarl.2"
CBAR     2000    2       1094    1109    0.      0.      1.
                         0.      0.      -.003   0.      0.      -.003
CBAR     2001    2       1109    1110    0.      0.      1.
                         0.      0.      -.003   0.      0.      -.003
CBAR     2002    2       1110    1111    0.      0.      1.
                         0.      0.      -.003   0.      0.      -.003
CBAR     2003    2       1111    1112    0.      0.      1.
                         0.      0.      -.003   0.      0.      -.003
CBAR     2004    2       1112    1113    0.      0.      1.
                         0.      0.      -.003   0.      0.      -.003
CBAR     2005    2       1113    1114    0.      0.      1.
                         0.      0.      -.003   0.      0.      -.003
CBAR     2006    2       1114    1115    0.      0.      1.
                         0.      0.      -.003   0.      0.      -.003
CBAR     2007    2       1115    1116    0.      0.      1.
                         0.      0.      -.003   0.      0.      -.003
CBAR     2008    2       1116    1117    0.      0.      1.
                         0.      0.      -.003   0.      0.      -.003
CBAR     2009    2       1117    1075    0.      0.      1.
                         0.      0.      -.003   0.      0.      -.003
CBAR     2010    2       1075    1118    0.      0.      1.
                         0.      0.      -.003   0.      0.      -.003
CBAR     2011    2       1118    1119    0.      0.      1.
                         0.      0.      -.003   0.      0.      -.003
CBAR     2012    2       1119    1120    0.      0.      1.
                         0.      0.      -.003   0.      0.      -.003
CBAR     2013    2       1120    1121    0.      0.      1.
                         0.      0.      -.003   0.      0.      -.003
CBAR     2014    2       1121    1122    0.      0.      1.
                         0.      0.      -.003   0.      0.      -.003
CBAR     2015    2       1122    1123    0.      0.      1.
                         0.      0.      -.003   0.      0.      -.003
CBAR     2016    2       1123    1124    0.      0.      1.
                         0.      0.      -.003   0.      0.      -.003
CBAR     2017    2       1124    1125    0.      0.      1.
                         0.      0.      -.003   0.      0.      -.003
CBAR     2018    2       1125    1126    0.      0.      1.
                         0.      0.      -.003   0.      0.      -.003
CBAR     2019    2       1126    1102    0.      0.      1.
                         0.      0.      -.003   0.      0.      -.003
$ ... 120 like lines cut
$ Elements and Element Properties for region : 1D_Beam_Rig
PBARL    3       1               BOX
         .005    .01     .001    .001
$ Pset: "1D_Beam_Rig" will be imported as: "pbarl.3"
CBAR     1000    3       1000    1001    0.      0.      1.
                         0.      0.      -.0065  0.      0.      -.0065
CBAR     1001    3       1001    1002    0.      0.      1.
                         0.      0.      -.0065  0.      0.      -.0065
CBAR     1002    3       1002    1003    0.      0.      1.
                         0.      0.      -.0065  0.      0.      -.0065
CBAR     1003    3       1003    1004    0.      0.      1.
                         0.      0.      -.0065  0.      0.      -.0065
CBAR     1004    3       1004    1005    0.      0.      1.
                         0.      0.      -.0065  0.      0.      -.0065
CBAR     1005    3       1005    1006    0.      0.      1.
                         0.      0.      -.0065  0.      0.      -.0065
CBAR     1006    3       1006    1007    0.      0.      1.
                         0.      0.      -.0065  0.      0.      -.0065
CBAR     1007    3       1008    1009    0.      0.      1.
                         0.      0.      -.0065  0.      0.      -.0065
CBAR     1008    3       1009    1010    0.      0.      1.
                         0.      0.      -.0065  0.      0.      -.0065
CBAR     1009    3       1010    1011    0.      0.      1.
                         0.      0.      -.0065  0.      0.      -.0065
CBAR     1010    3       1011    1012    0.      0.      1.
                         0.      0.      -.0065  0.      0.      -.0065
CBAR     1011    3       1012    1013    0.      0.      1.
                         0.      0.      -.0065  0.      0.      -.0065
CBAR     1012    3       1013    1014    0.      0.      1.
                         0.      0.      -.0065  0.      0.      -.0065
CBAR     1013    3       1014    1007    0.      0.      1.
                         0.      0.      -.0065  0.      0.      -.0065
CBAR     1014    3       1015    1016    0.      0.      1.
                         0.      0.      -.0065  0.      0.      -.0065
CBAR     1015    3       1016    1017    0.      0.      1.
                         0.      0.      -.0065  0.      0.      -.0065
CBAR     1016    3       1017    1018    0.      0.      1.
                         0.      0.      -.0065  0.      0.      -.0065
CBAR     1017    3       1018    1019    0.      0.      1.
                         0.      0.      -.0065  0.      0.      -.0065
CBAR     1018    3       1019    1020    0.      0.      1.
                         0.      0.      -.0065  0.      0.      -.0065
CBAR     1019    3       1020    1021    0.      0.      1.
                         0.      0.      -.0065  0.      0.      -.0065
$ ... 184 like lines cut
$ Elements and Element Properties for region : SM_002_2D_Shell_Al6061
PSHELL   4       1       .0015   1               1
$ Pset: "SM_002_2D_Shell_Al6061" will be imported as: "pshell.4"
CQUAD4   3556    4       2596    2597    2602    2601
CQUAD4   3557    4       2597    2598    2603    2602
CQUAD4   3558    4       2598    2599    2604    2603
CQUAD4   3559    4       2599    2600    2605    2604
CQUAD4   3560    4       2601    2602    2607    2606
CQUAD4   3561    4       2602    2603    2608    2607
CQUAD4   3562    4       2603    2604    2609    2608
CQUAD4   3563    4       2604    2605    2610    2609
CQUAD4   3564    4       2606    2607    2612    2611
CQUAD4   3565    4       2607    2608    2613    2612
CQUAD4   3566    4       2608    2609    2614    2613
CQUAD4   3567    4       2609    2610    2615    2614
CQUAD4   3568    4       2611    2612    2617    2616
CQUAD4   3569    4       2612    2613    2618    2617
CQUAD4   3570    4       2613    2614    2619    2618
CQUAD4   3571    4       2614    2615    2620    2619
CQUAD4   3572    4       2616    2621    2630    2611
CQUAD4   3573    4       2621    2622    2627    2630
CQUAD4   3574    4       2622    2623    2626    2627
CQUAD4   3575    4       2623    2624    2625    2626
$ ... 588 like lines cut
CTRIA3   6604    4       2631    2629    2632
CTRIA3   6605    4       2632    2634    2631
CTRIA3   6606    4       2645    2643    2646
CTRIA3   6607    4       2646    2648    2645
CTRIA3   6608    4       2667    2665    2668
CTRIA3   6609    4       2668    2670    2667
CTRIA3   6610    4       2689    2687    2690
CTRIA3   6611    4       2690    2692    2689
CTRIA3   6612    4       2707    2705    2708
CTRIA3   6613    4       2708    2710    2707
CTRIA3   6614    4       2729    2727    2730
CTRIA3   6615    4       2730    2732    2729
CTRIA3   6616    4       2751    2749    2752
CTRIA3   6617    4       2752    2754    2751
CTRIA3   6618    4       2773    2771    2774
CTRIA3   6619    4       2774    2776    2773
CTRIA3   6620    4       2791    2789    2792
CTRIA3   6621    4       2792    2794    2791
CTRIA3   6622    4       2813    2811    2814
CTRIA3   6623    4       2814    2816    2813
$ ... 12 like lines cut
$ Elements and Element Properties for region : SM_002_1D_Beam_Ext
PBAR*    5               1               1.8000001-5     5.4000002-11
*        1.3500001-11    3.7078594-11
         .003    .0015   -.003   .0015   -.003   -.0015  .003    -.0015
        .8333333.8333333 0.
$ Pset: "SM_002_1D_Beam_Ext" will be imported as: "pbar.5"
CBAR     4555    5       2624    2625    0.      0.      1.
                         0.      0.      -.00375 0.      0.      -.00375
CBAR     4556    5       2625    2628    0.      0.      1.
                         0.      0.      -.00375 0.      0.      -.00375
CBAR     4557    5       2628    2633    0.      0.      1.
                         0.      0.      -.00375 0.      0.      -.00375
CBAR     4558    5       2633    2635    0.      0.      1.
                         0.      0.      -.00375 0.      0.      -.00375
CBAR     4559    5       2635    2638    0.      0.      1.
                         0.      0.      -.00375 0.      0.      -.00375
CBAR     4560    5       2638    2596    0.      0.      1.
                         0.      0.      -.00375 0.      0.      -.00375
CBAR     4561    5       2596    2639    0.      0.      1.
                         0.      0.      -.00375 0.      0.      -.00375
CBAR     4562    5       2639    2642    0.      0.      1.
                         0.      0.      -.00375 0.      0.      -.00375
CBAR     4563    5       2642    2647    0.      0.      1.
                         0.      0.      -.00375 0.      0.      -.00375
CBAR     4564    5       2647    2649    0.      0.      1.
                         0.      0.      -.00375 0.      0.      -.00375
CBAR     4565    5       2649    2652    0.      0.      1.
                         0.      0.      -.00375 0.      0.      -.00375
CBAR     4566    5       2652    2656    0.      0.      1.
                         0.      0.      -.00375 0.      0.      -.00375
CBAR     4567    5       2656    2661    0.      0.      1.
                         0.      0.      -.00375 0.      0.      -.00375
CBAR     4568    5       2661    2664    0.      0.      1.
                         0.      0.      -.00375 0.      0.      -.00375
CBAR     4569    5       2664    2669    0.      0.      1.
                         0.      0.      -.00375 0.      0.      -.00375
CBAR     4570    5       2669    2671    0.      0.      1.
                         0.      0.      -.00375 0.      0.      -.00375
CBAR     4571    5       2671    2674    0.      0.      1.
                         0.      0.      -.00375 0.      0.      -.00375
CBAR     4572    5       2674    2678    0.      0.      1.
                         0.      0.      -.00375 0.      0.      -.00375
CBAR     4573    5       2678    2683    0.      0.      1.
                         0.      0.      -.00375 0.      0.      -.00375
CBAR     4574    5       2683    2686    0.      0.      1.
                         0.      0.      -.00375 0.      0.      -.00375
$ ... 152 like lines cut
$ Elements and Element Properties for region : 1D_Beam_Int
PBAR*    6               1               1.04-4          4.6186663-9
*        1.3786666-9     3.1901537-9
         .01     .005    -.01    .005    -.01    -.005   .01     -.005
        .6153846.2307692 0.
$ Pset: "1D_Beam_Int" will be imported as: "pbar.6"
CBAR     4651    6       2616    2611    0.      0.      1.
                         0.      0.      -.01075 0.      0.      -.01075
CBAR     4652    6       2611    2606    0.      0.      1.
                         0.      0.      -.01075 0.      0.      -.01075
CBAR     4653    6       2606    2601    0.      0.      1.
                         0.      0.      -.01075 0.      0.      -.01075
CBAR     4654    6       2601    2596    0.      0.      1.
                         0.      0.      -.01075 0.      0.      -.01075
CBAR     4655    6       2616    2621    0.      0.      1.
                         0.      0.      -.01075 0.      0.      -.01075
CBAR     4656    6       2621    2622    0.      0.      1.
                         0.      0.      -.01075 0.      0.      -.01075
CBAR     4657    6       2622    2623    0.      0.      1.
                         0.      0.      -.01075 0.      0.      -.01075
CBAR     4658    6       2623    2624    0.      0.      1.
                         0.      0.      -.01075 0.      0.      -.01075
CBAR     4659    6       2596    2597    0.      0.      1.
                         0.      0.      -.01075 0.      0.      -.01075
CBAR     4660    6       2597    2598    0.      0.      1.
                         0.      0.      -.01075 0.      0.      -.01075
CBAR     4661    6       2598    2599    0.      0.      1.
                         0.      0.      -.01075 0.      0.      -.01075
CBAR     4662    6       2599    2600    0.      0.      1.
                         0.      0.      -.01075 0.      0.      -.01075
CBAR     4663    6       2600    2605    0.      0.      1.
                         0.      0.      -.01075 0.      0.      -.01075
CBAR     4664    6       2605    2610    0.      0.      1.
                         0.      0.      -.01075 0.      0.      -.01075
CBAR     4665    6       2610    2615    0.      0.      1.
                         0.      0.      -.01075 0.      0.      -.01075
CBAR     4666    6       2615    2620    0.      0.      1.
                         0.      0.      -.01075 0.      0.      -.01075
CBAR     4667    6       2620    2619    0.      0.      1.
                         0.      0.      -.01075 0.      0.      -.01075
CBAR     4668    6       2619    2618    0.      0.      1.
                         0.      0.      -.01075 0.      0.      -.01075
CBAR     4669    6       2618    2617    0.      0.      1.
                         0.      0.      -.01075 0.      0.      -.01075
CBAR     4670    6       2617    2616    0.      0.      1.
                         0.      0.      -.01075 0.      0.      -.01075
$ ... 984 like lines cut
$ Elements and Element Properties for region : 0D_Mass_Int
CONM2    6555    3271            11.
CONM2    9635    4946            11.
CONM2    12715   6620            11.
$ Elements and Element Properties for region : SM_003_2D_Shell_Al6061
PSHELL   7       1       .0015   1               1
$ Pset: "SM_003_2D_Shell_Al6061" will be imported as: "pshell.7"
CQUAD4   6636    7       4271    4272    4277    4276
CQUAD4   6637    7       4272    4273    4278    4277
CQUAD4   6638    7       4273    4274    4279    4278
CQUAD4   6639    7       4274    4275    4280    4279
CQUAD4   6640    7       4276    4277    4282    4281
CQUAD4   6641    7       4277    4278    4283    4282
CQUAD4   6642    7       4278    4279    4284    4283
CQUAD4   6643    7       4279    4280    4285    4284
CQUAD4   6644    7       4281    4282    4287    4286
CQUAD4   6645    7       4282    4283    4288    4287
CQUAD4   6646    7       4283    4284    4289    4288
CQUAD4   6647    7       4284    4285    4290    4289
CQUAD4   6648    7       4286    4287    4292    4291
CQUAD4   6649    7       4287    4288    4293    4292
CQUAD4   6650    7       4288    4289    4294    4293
CQUAD4   6651    7       4289    4290    4295    4294
CQUAD4   6652    7       4291    4296    4305    4286
CQUAD4   6653    7       4296    4297    4302    4305
CQUAD4   6654    7       4297    4298    4301    4302
CQUAD4   6655    7       4298    4299    4300    4301
$ ... 588 like lines cut
CTRIA3   9684    7       4306    4304    4307
CTRIA3   9685    7       4307    4309    4306
CTRIA3   9686    7       4320    4318    4321
CTRIA3   9687    7       4321    4323    4320
CTRIA3   9688    7       4342    4340    4343
CTRIA3   9689    7       4343    4345    4342
CTRIA3   9690    7       4364    4362    4365
CTRIA3   9691    7       4365    4367    4364
CTRIA3   9692    7       4382    4380    4383
CTRIA3   9693    7       4383    4385    4382
CTRIA3   9694    7       4404    4402    4405
CTRIA3   9695    7       4405    4407    4404
CTRIA3   9696    7       4426    4424    4427
CTRIA3   9697    7       4427    4429    4426
CTRIA3   9698    7       4448    4446    4449
CTRIA3   9699    7       4449    4451    4448
CTRIA3   9700    7       4466    4464    4467
CTRIA3   9701    7       4467    4469    4466
CTRIA3   9702    7       4488    4486    4489
CTRIA3   9703    7       4489    4491    4488
$ ... 12 like lines cut
$ Elements and Element Properties for region : SM_003_1D_Beam_Ext
PBAR*    8               1               1.8000001-5     5.4000002-11
*        1.3500001-11    3.7078594-11
         .003    .0015   -.003   .0015   -.003   -.0015  .003    -.0015
        .8333333.8333333 0.
$ Pset: "SM_003_1D_Beam_Ext" will be imported as: "pbar.8"
CBAR     7635    8       4299    4300    0.      0.      1.
                         0.      0.      -.00375 0.      0.      -.00375
CBAR     7636    8       4300    4303    0.      0.      1.
                         0.      0.      -.00375 0.      0.      -.00375
CBAR     7637    8       4303    4308    0.      0.      1.
                         0.      0.      -.00375 0.      0.      -.00375
CBAR     7638    8       4308    4310    0.      0.      1.
                         0.      0.      -.00375 0.      0.      -.00375
CBAR     7639    8       4310    4313    0.      0.      1.
                         0.      0.      -.00375 0.      0.      -.00375
CBAR     7640    8       4313    4271    0.      0.      1.
                         0.      0.      -.00375 0.      0.      -.00375
CBAR     7641    8       4271    4314    0.      0.      1.
                         0.      0.      -.00375 0.      0.      -.00375
CBAR     7642    8       4314    4317    0.      0.      1.
                         0.      0.      -.00375 0.      0.      -.00375
CBAR     7643    8       4317    4322    0.      0.      1.
                         0.      0.      -.00375 0.      0.      -.00375
CBAR     7644    8       4322    4324    0.      0.      1.
                         0.      0.      -.00375 0.      0.      -.00375
CBAR     7645    8       4324    4327    0.      0.      1.
                         0.      0.      -.00375 0.      0.      -.00375
CBAR     7646    8       4327    4331    0.      0.      1.
                         0.      0.      -.00375 0.      0.      -.00375
CBAR     7647    8       4331    4336    0.      0.      1.
                         0.      0.      -.00375 0.      0.      -.00375
CBAR     7648    8       4336    4339    0.      0.      1.
                         0.      0.      -.00375 0.      0.      -.00375
CBAR     7649    8       4339    4344    0.      0.      1.
                         0.      0.      -.00375 0.      0.      -.00375
CBAR     7650    8       4344    4346    0.      0.      1.
                         0.      0.      -.00375 0.      0.      -.00375
CBAR     7651    8       4346    4349    0.      0.      1.
                         0.      0.      -.00375 0.      0.      -.00375
CBAR     7652    8       4349    4353    0.      0.      1.
                         0.      0.      -.00375 0.      0.      -.00375
CBAR     7653    8       4353    4358    0.      0.      1.
                         0.      0.      -.00375 0.      0.      -.00375
CBAR     7654    8       4358    4361    0.      0.      1.
                         0.      0.      -.00375 0.      0.      -.00375
$ ... 152 like lines cut
$ Elements and Element Properties for region : SM_004_2D_Shell_Al6061
PSHELL   9       2       .001    2               2
$ Pset: "SM_004_2D_Shell_Al6061" will be imported as: "pshell.9"
CQUAD4   9716    9       5946    5947    5952    5951
CQUAD4   9717    9       5947    5948    5953    5952
CQUAD4   9718    9       5948    5949    5954    5953
CQUAD4   9719    9       5949    5053    5955    5954
CQUAD4   9720    9       5951    5952    5957    5956
CQUAD4   9721    9       5952    5953    5958    5957
CQUAD4   9722    9       5953    5954    5959    5958
CQUAD4   9723    9       5954    5955    5960    5959
CQUAD4   9724    9       5956    5957    5962    5961
CQUAD4   9725    9       5957    5958    5963    5962
CQUAD4   9726    9       5958    5959    5964    5963
CQUAD4   9727    9       5959    5960    5965    5964
CQUAD4   9728    9       5961    5962    5967    5966
CQUAD4   9729    9       5962    5963    5968    5967
CQUAD4   9730    9       5963    5964    5054    5968
CQUAD4   9731    9       5964    5965    5970    5054
CQUAD4   9732    9       5966    5971    5980    5961
CQUAD4   9733    9       5971    5972    5977    5980
CQUAD4   9734    9       5972    5973    5976    5977
CQUAD4   9735    9       5973    5974    5975    5976
$ ... 587 like lines cut
CTRIA3   12764   9       5981    5979    5982
CTRIA3   12765   9       5982    5984    5981
CTRIA3   12766   9       5995    5993    5996
CTRIA3   12767   9       5996    5998    5995
CTRIA3   12768   9       6017    6015    6018
CTRIA3   12769   9       6018    6020    6017
CTRIA3   12770   9       6039    6037    6040
CTRIA3   12771   9       6040    6042    6039
CTRIA3   12772   9       6057    6055    6058
CTRIA3   12773   9       6058    6060    6057
CTRIA3   12774   9       6079    6077    6080
CTRIA3   12775   9       6080    6082    6079
CTRIA3   12776   9       6101    6099    6102
CTRIA3   12777   9       6102    6104    6101
CTRIA3   12778   9       6123    6121    6124
CTRIA3   12779   9       6124    6126    6123
CTRIA3   12780   9       6140    6137    6141
CTRIA3   12781   9       6141    6146    6140
CTRIA3   12782   9       6163    6161    6164
CTRIA3   12783   9       6164    6166    6163
$ ... 14 like lines cut
$ Elements and Element Properties for region : SM_004_1D_Beam_Ext
PBAR*    10              2               1.5-5           3.1249999-11
*        1.125-11        2.8173708-11
         .0025   .0015   -.0025  .0015   -.0025  -.0015  .0025   -.0015
        .8333333.8333333 0.
$ Pset: "SM_004_1D_Beam_Ext" will be imported as: "pbar.10"
CBAR     10715   10      5974    5975    0.      0.      1.
                         0.      0.      -.003   0.      0.      -.003
CBAR     10716   10      5975    5978    0.      0.      1.
                         0.      0.      -.003   0.      0.      -.003
CBAR     10717   10      5978    5983    0.      0.      1.
                         0.      0.      -.003   0.      0.      -.003
CBAR     10718   10      5983    5985    0.      0.      1.
                         0.      0.      -.003   0.      0.      -.003
CBAR     10719   10      5985    5988    0.      0.      1.
                         0.      0.      -.003   0.      0.      -.003
CBAR     10720   10      5988    5946    0.      0.      1.
                         0.      0.      -.003   0.      0.      -.003
CBAR     10721   10      5946    5989    0.      0.      1.
                         0.      0.      -.003   0.      0.      -.003
CBAR     10722   10      5989    5992    0.      0.      1.
                         0.      0.      -.003   0.      0.      -.003
CBAR     10723   10      5992    5997    0.      0.      1.
                         0.      0.      -.003   0.      0.      -.003
CBAR     10724   10      5997    5999    0.      0.      1.
                         0.      0.      -.003   0.      0.      -.003
CBAR     10725   10      5999    6002    0.      0.      1.
                         0.      0.      -.003   0.      0.      -.003
CBAR     10726   10      6002    6006    0.      0.      1.
                         0.      0.      -.003   0.      0.      -.003
CBAR     10727   10      6006    6011    0.      0.      1.
                         0.      0.      -.003   0.      0.      -.003
CBAR     10728   10      6011    6014    0.      0.      1.
                         0.      0.      -.003   0.      0.      -.003
CBAR     10729   10      6014    6019    0.      0.      1.
                         0.      0.      -.003   0.      0.      -.003
CBAR     10730   10      6019    6021    0.      0.      1.
                         0.      0.      -.003   0.      0.      -.003
CBAR     10731   10      6021    6024    0.      0.      1.
                         0.      0.      -.003   0.      0.      -.003
CBAR     10732   10      6024    6028    0.      0.      1.
                         0.      0.      -.003   0.      0.      -.003
CBAR     10733   10      6028    6033    0.      0.      1.
                         0.      0.      -.003   0.      0.      -.003
CBAR     10734   10      6033    6036    0.      0.      1.
                         0.      0.      -.003   0.      0.      -.003
$ ... 152 like lines cut
$ Elements and Element Properties for region : SM_004_1D_Beam_Int
PBAR*    11              2               8.0240003-5     3.2943777-9
*        5.071259-10     1.3552545-9
         .01     .0035   -.01    .0035   -.01    -.0035  .01     -.0035
        .7033898.1525424 0.
$ Pset: "SM_004_1D_Beam_Int" will be imported as: "pbar.11"
CBAR     10811   11      5966    5961    0.      0.      1.
                         0.      0.      -.0105  0.      0.      -.0105
CBAR     10812   11      5961    5956    0.      0.      1.
                         0.      0.      -.0105  0.      0.      -.0105
CBAR     10813   11      5956    5951    0.      0.      1.
                         0.      0.      -.0105  0.      0.      -.0105
CBAR     10814   11      5951    5946    0.      0.      1.
                         0.      0.      -.0105  0.      0.      -.0105
CBAR     10815   11      5966    5971    0.      0.      1.
                         0.      0.      -.0105  0.      0.      -.0105
CBAR     10816   11      5971    5972    0.      0.      1.
                         0.      0.      -.0105  0.      0.      -.0105
CBAR     10817   11      5972    5973    0.      0.      1.
                         0.      0.      -.0105  0.      0.      -.0105
CBAR     10818   11      5973    5974    0.      0.      1.
                         0.      0.      -.0105  0.      0.      -.0105
CBAR     10819   11      5946    5947    0.      0.      1.
                         0.      0.      -.0105  0.      0.      -.0105
CBAR     10820   11      5947    5948    0.      0.      1.
                         0.      0.      -.0105  0.      0.      -.0105
CBAR     10821   11      5948    5949    0.      0.      1.
                         0.      0.      -.0105  0.      0.      -.0105
CBAR     10822   11      5949    5053    0.      0.      1.
                         0.      0.      -.0105  0.      0.      -.0105
CBAR     10823   11      5053    5955    0.      0.      1.
                         0.      0.      -.0105  0.      0.      -.0105
CBAR     10824   11      5955    5960    0.      0.      1.
                         0.      0.      -.0105  0.      0.      -.0105
CBAR     10825   11      5960    5965    0.      0.      1.
                         0.      0.      -.0105  0.      0.      -.0105
CBAR     10826   11      5965    5970    0.      0.      1.
                         0.      0.      -.0105  0.      0.      -.0105
CBAR     10827   11      5970    5054    0.      0.      1.
                         0.      0.      -.0105  0.      0.      -.0105
CBAR     10828   11      5054    5968    0.      0.      1.
                         0.      0.      -.0105  0.      0.      -.0105
CBAR     10829   11      5968    5967    0.      0.      1.
                         0.      0.      -.0105  0.      0.      -.0105
CBAR     10830   11      5967    5966    0.      0.      1.
                         0.      0.      -.0105  0.      0.      -.0105
$ ... 472 like lines cut
$ Elements and Element Properties for region : 1D_Bush
PBUSH    12      K       1.+9    1.+9    1.+9    100.    1.+7    1.+7
$ Pset: "1D_Bush" will be imported as: "pbush.12"
CBUSH    11067   12      5046    5146    1.      0.      0.
CBUSH    11068   12      5047    5147    1.      0.      0.
CBUSH    11069   12      5048    5148    1.      0.      0.
CBUSH    11070   12      5049    5149    1.      0.      0.
CBUSH    11071   12      5050    5150    1.      0.      0.
CBUSH    11072   12      5051    5151    1.      0.      0.
CBUSH    11073   12      5052    5152    1.      0.      0.
CBUSH    11074   12      5053    5153    1.      0.      0.
CBUSH    11075   12      5054    5154    1.      0.      0.
CBUSH    11076   12      5055    5155    1.      0.      0.
CBUSH    11077   12      5056    5156    1.      0.      0.
CBUSH    11078   12      5057    5157    1.      0.      0.
$ Elements and Element Properties for region : 1D_L_Xn_Yn
PBAR*    13              1               2.8496-4        2.2845819-8
*        2.2845819-8     2.5684395-9
*        .0206117        -.0041883       -.0093883       .0206117
*        -.0093883       -.0093883       .0206117        -.0093883
*        .4525547        .4525547        -1.3131327-8
*
$ Pset: "1D_L_Xn_Yn" will be imported as: "pbar.13"
CBAR     12798   13      5974    10001   1.      0.      0.
CBAR     12799   13      10001   10002   1.      0.      0.
CBAR     12800   13      10002   10003   1.      0.      0.
CBAR     12801   13      10003   10004   1.      0.      0.
CBAR     12802   13      10004   4299    1.      0.      0.
CBAR     12803   13      4299    10007   1.      0.      0.
CBAR     12804   13      10007   10008   1.      0.      0.
CBAR     12805   13      10008   10009   1.      0.      0.
CBAR     12806   13      10009   10010   1.      0.      0.
CBAR     12807   13      10010   2624    1.      0.      0.
CBAR     12808   13      2624    10013   1.      0.      0.
CBAR     12809   13      10013   10014   1.      0.      0.
CBAR     12810   13      10014   10015   1.      0.      0.
CBAR     12811   13      10015   10016   1.      0.      0.
CBAR     12812   13      10016   1008    1.      0.      0.
$ Elements and Element Properties for region : 1D_L_Xn_Yp
PBAR*    14              1               2.8496-4        2.2845819-8
*        2.2845819-8     2.5684395-9
*        .0206117        -.0041883       -.0093883       .0206117
*        -.0093883       -.0093883       .0206117        -.0093883
*        .4525547        .4525547        -1.3131327-8
*
$ Pset: "1D_L_Xn_Yp" will be imported as: "pbar.14"
CBAR     12813   14      6201    10019   0.      -1.     0.
CBAR     12814   14      10019   10020   0.      -1.     0.
CBAR     12815   14      10020   10021   0.      -1.     0.
CBAR     12816   14      10021   10022   0.      -1.     0.
CBAR     12817   14      10022   4526    0.      -1.     0.
CBAR     12818   14      4526    10025   0.      -1.     0.
CBAR     12819   14      10025   10026   0.      -1.     0.
CBAR     12820   14      10026   10027   0.      -1.     0.
CBAR     12821   14      10027   10028   0.      -1.     0.
CBAR     12822   14      10028   2851    0.      -1.     0.
CBAR     12823   14      2851    10031   0.      -1.     0.
CBAR     12824   14      10031   10032   0.      -1.     0.
CBAR     12825   14      10032   10033   0.      -1.     0.
CBAR     12826   14      10033   10034   0.      -1.     0.
CBAR     12827   14      10034   1094    0.      -1.     0.
$ Elements and Element Properties for region : 1D_L_Xp_Yn
PBAR*    15              1               2.8496-4        2.2845819-8
*        2.2845819-8     2.5684395-9
*        .0206117        -.0041883       -.0093883       .0206117
*        -.0093883       -.0093883       .0206117        -.0093883
*        .4525547        .4525547        -1.3131327-8
*
$ Pset: "1D_L_Xp_Yn" will be imported as: "pbar.15"
CBAR     12828   15      6050    10037   0.      1.      0.
CBAR     12829   15      10037   10038   0.      1.      0.
CBAR     12830   15      10038   10039   0.      1.      0.
CBAR     12831   15      10039   10040   0.      1.      0.
CBAR     12832   15      10040   4375    0.      1.      0.
CBAR     12833   15      4375    10043   0.      1.      0.
CBAR     12834   15      10043   10044   0.      1.      0.
CBAR     12835   15      10044   10045   0.      1.      0.
CBAR     12836   15      10045   10046   0.      1.      0.
CBAR     12837   15      10046   2700    0.      1.      0.
CBAR     12838   15      2700    10049   0.      1.      0.
CBAR     12839   15      10049   10050   0.      1.      0.
CBAR     12840   15      10050   10051   0.      1.      0.
CBAR     12841   15      10051   10052   0.      1.      0.
CBAR     12842   15      10052   1095    0.      1.      0.
$ Elements and Element Properties for region : 1D_L_Xp_Yp
PBAR*    16              1               2.8496-4        2.2845819-8
*        2.2845819-8     2.5684395-9
*        .0206117        -.0041883       -.0093883       .0206117
*        -.0093883       -.0093883       .0206117        -.0093883
*        .4525547        .4525547        -1.3131327-8
*
$ Pset: "1D_L_Xp_Yp" will be imported as: "pbar.16"
CBAR     12843   16      6134    10055   -1.     0.      0.
CBAR     12844   16      10055   10056   -1.     0.      0.
CBAR     12845   16      10056   10057   -1.     0.      0.
CBAR     12846   16      10057   10058   -1.     0.      0.
CBAR     12847   16      10058   4459    -1.     0.      0.
CBAR     12848   16      4459    10061   -1.     0.      0.
CBAR     12849   16      10061   10062   -1.     0.      0.
CBAR     12850   16      10062   10063   -1.     0.      0.
CBAR     12851   16      10063   10064   -1.     0.      0.
CBAR     12852   16      10064   2784    -1.     0.      0.
CBAR     12853   16      2784    10067   -1.     0.      0.
CBAR     12854   16      10067   10068   -1.     0.      0.
CBAR     12855   16      10068   10069   -1.     0.      0.
CBAR     12856   16      10069   10070   -1.     0.      0.
CBAR     12857   16      10070   1102    -1.     0.      0.
$ Elements and Element Properties for region : 2D_Al6061_Panel_1p5mm
PSHELL   17      1       .0015   1               1
$ Pset: "2D_Al6061_Panel_1p5mm" will be imported as: "pshell.17"
CQUAD4   12858   17      5974    10001   10078   6297
CQUAD4   12859   17      10001   10002   10079   10078
CQUAD4   12860   17      10002   10003   10080   10079
CQUAD4   12861   17      10003   10004   10081   10080
CQUAD4   12862   17      10004   4299    4622    10081
CQUAD4   12863   17      6297    10078   10084   6294
CQUAD4   12864   17      10078   10079   10085   10084
CQUAD4   12865   17      10079   10080   10086   10085
CQUAD4   12866   17      10080   10081   10087   10086
CQUAD4   12867   17      10081   4622    4619    10087
CQUAD4   12868   17      6294    10084   10090   6292
CQUAD4   12869   17      10084   10085   10091   10090
CQUAD4   12870   17      10085   10086   10092   10091
CQUAD4   12871   17      10086   10087   10093   10092
CQUAD4   12872   17      10087   4619    4617    10093
CQUAD4   12873   17      6292    10090   10096   6287
CQUAD4   12874   17      10090   10091   10097   10096
CQUAD4   12875   17      10091   10092   10098   10097
CQUAD4   12876   17      10092   10093   10099   10098
CQUAD4   12877   17      10093   4617    4612    10099
$ ... 1580 like lines cut
$ Referenced Material Records
$ Material Record : Al6061
$ Description of Material : Date: 07-May-23           Time: 10:27:58
MAT1*    1               7.0000001+10                    .33
*        2700.
$ Material Record : Ti64
$ Description of Material : Date: 07-May-23           Time: 10:27:58
MAT1     2      1.138+11         .342    4430.
$ Multipoint Constraints of the Entire Model
RBE2     1       3271    123456  3011    3046    3093    3127
RBE2     2       4946    123456  4686    4721    4768    4802
RBE2     4       6620    123     6361    6396    6443    6477
$ Nodes of the Entire Model
GRID*    1000                           -.22499999403954 0.
*        .6
GRID*    1001                           -.20892857015133 -.0160714276135
*        .6
GRID*    1002                           -.19285713136196-.03214285522699
*        .6
GRID*    1003                           -.17678570747375-.04821428284049
*        .6
GRID*    1004                           -.16071428358555-.06428571045399
*        .6
GRID*    1005                           -.14464284479618-.08035714179277
*        .6
GRID*    1006                           -.12857142090797-.09642857313156
*        .6
GRID*    1007                           -.11249999701977-.11249999701977
*        .6
GRID*    1008                           -.22499999403954-.22499999403954
*        .6
GRID*    1009                           -.20892857015133-.20892857015133
*        .6
GRID*    1010                           -.19285713136196-.19285713136196
*        .6
GRID*    1011                           -.17678570747375-.17678570747375
*        .6
GRID*    1012                           -.16071428358555-.16071428358555
*        .6
GRID*    1013                           -.14464284479618-.14464284479618
*        .6
GRID*    1014                           -.12857142090797-.12857142090797
*        .6
GRID     1015            0.      0.      .6
GRID*    1016                            -.0160714276135 -.0160714276135
*        .6
GRID*    1017                           -.03214285522699-.03214285522699
*        .6
GRID*    1018                           -.04821428284049-.04821428284049
*        .6
GRID*    1019                           -.06428571045399-.06428571045399
*        .6
GRID*    1020                           -.08035714179277-.08035714179277
*        .6
GRID*    1021                           -.09642857313156-.09642857313156
*        .6
GRID*    1022                            -.0160714276135.016071427613497
*        .6
GRID*    1023                           -.03214285522699.032142855226994
*        .6
GRID*    1024                           -.04821428284049 .04821428284049
*        .6
GRID*    1025                           -.06428571045399.064285710453987
*        .6
GRID*    1026                           -.08035714179277.080357141792774
*        .6
GRID*    1027                           -.09642857313156.096428573131561
*        .6
GRID*    1028                           -.11249999701977.112499997019768
*        .6
GRID*    1029                           -.12857142090797.096428565680981
*        .6
GRID*    1030                           -.14464285969734.080357134342194
*        .6
GRID*    1031                           -.16071428358555.064285710453987
*        .6
GRID*    1032                           -.17678570747375 .0482142791152
*        .6
GRID*    1033                           -.19285714626312.032142855226994
*        .6
GRID*    1034                           -.20892857015133.016071420162916
*        .6
GRID*    1035                           .016071427613497.016071427613497
*        .6
$ ... 1166 like lines cut
GRID     2618           -.140625-.140625 .4
GRID*    2619                            -.1265624910593 -.1265624910593
*        .4
GRID*    2620                           -.11249999701977-.11249999701977
*        .4
GRID*    2621                           -.18281249701977-.18281249701977
*        .4
GRID*    2622                           -.19687500596046-.19687500596046
*        .4
GRID*    2623                            -.2109375       -.2109375
*        .4
GRID*    2624                           -.22499999403954-.22499999403954
*        .4
GRID*    2625                           -.20624999701977-.22499999403954
*        .4
GRID*    2626                           -.19498908519745-.21414971351624
*        .4
GRID*    2627                           -.18242983520031-.20362676680088
*        .4
GRID*    2628                            -.1875         -.22499999403954
*        .4
GRID*    2629                           -.18009623885155-.21731333434582
*        .4
GRID*    2630                           -.16880922019482-.19321949779987
*        .4
GRID*    2631                           -.16887353360653-.21046978235245
*        .4
GRID*    2632                           -.16883634030819 -.219875395298
*        .4
GRID*    2633                           -.16874998807907-.22499999403954
*        .4
GRID*    2634                           -.15760126709938-.21739107370377
*        .4
GRID*    2635                            -.1499999910593-.22499999403954
*        .4
GRID*    2636                           -.15525072813034-.20369583368301
*        .4
GRID*    2637                           -.14266611635685-.21425610780716
*        .4
GRID*    2638                           -.13124999403954-.22499999403954
*        .4
$ ... 644 like lines cut
GRID     2961            .140625-.140625 .4
GRID*    2962                           .126562505960464 -.1265624910593
*        .4
GRID*    2963                           .112500004470348-.11249998956919
*        .4
GRID*    2964                           .112499982118607.196875005960464
*        .4
GRID*    2965                            .09843748062849.182812511920929
*        .4
GRID*    2966                           .084374979138374.168750002980232
*        .4
GRID*    2967                           .070312485098839.154687508940697
*        .4
GRID*    2968                           .126562491059303.182812511920929
*        .4
GRID*    2969                           .112499982118607.168750002980232
*        .4
GRID*    2970                            .09843748062849.154687508940697
*        .4
GRID*    2971                           .084374986588955 .140625
*        .4
GRID*    2972                           .140624985098839.168750017881393
*        .4
GRID*    2973                           .126562491059303.154687508940697
*        .4
GRID*    2974                           .112499982118607 .140625
*        .4
GRID*    2975                           .098437488079071.126562505960464
*        .4
GRID*    2976                           .154687494039536.154687523841858
*        .4
GRID*    2977                           .140624985098839.140625014901161
*        .4
GRID*    2978                           .126562491059303.126562505960464
*        .4
GRID*    2979                           .112499989569187.112500004470348
*        .4
GRID*    2980                           -.19687500596046.112499974668026
*        .4
GRID*    2981                           -.18281251192093 .09843747317791
*        .4
$ ... 620 like lines cut
GRID     4293           -.140625-.140625 .2
GRID*    4294                            -.1265624910593 -.1265624910593
*        .2
GRID*    4295                           -.11249999701977-.11249999701977
*        .2
GRID*    4296                           -.18281249701977-.18281249701977
*        .2
GRID*    4297                           -.19687500596046-.19687500596046
*        .2
GRID*    4298                            -.2109375       -.2109375
*        .2
GRID*    4299                           -.22499999403954-.22499999403954
*        .2
GRID*    4300                           -.20624999701977-.22499999403954
*        .2
GRID*    4301                           -.19498908519745-.21414971351624
*        .2
GRID*    4302                           -.18242983520031-.20362676680088
*        .2
GRID*    4303                            -.1875         -.22499999403954
*        .2
GRID*    4304                           -.18009623885155-.21731333434582
*        .2
GRID*    4305                           -.16880922019482-.19321949779987
*        .2
GRID*    4306                           -.16887353360653-.21046978235245
*        .2
GRID*    4307                           -.16883634030819 -.219875395298
*        .2
GRID*    4308                           -.16874998807907-.22499999403954
*        .2
GRID*    4309                           -.15760126709938-.21739107370377
*        .2
GRID*    4310                            -.1499999910593-.22499999403954
*        .2
GRID*    4311                           -.15525072813034-.20369583368301
*        .2
GRID*    4312                           -.14266611635685-.21425610780716
*        .2
GRID*    4313                           -.13124999403954-.22499999403954
*        .2
$ ... 644 like lines cut
GRID     4636            .140625-.140625 .2
GRID*    4637                           .126562505960464 -.1265624910593
*        .2
GRID*    4638                           .112500004470348-.11249998956919
*        .2
GRID*    4639                           .112499982118607.196875005960464
*        .2
GRID*    4640                            .09843748062849.182812511920929
*        .2
GRID*    4641                           .084374979138374.168750002980232
*        .2
GRID*    4642                           .070312485098839.154687508940697
*        .2
GRID*    4643                           .126562491059303.182812511920929
*        .2
GRID*    4644                           .112499982118607.168750002980232
*        .2
GRID*    4645                            .09843748062849.154687508940697
*        .2
GRID*    4646                           .084374986588955 .140625
*        .2
GRID*    4647                           .140624985098839.168750017881393
*        .2
GRID*    4648                           .126562491059303.154687508940697
*        .2
GRID*    4649                           .112499982118607 .140625
*        .2
GRID*    4650                           .098437488079071.126562505960464
*        .2
GRID*    4651                           .154687494039536.154687523841858
*        .2
GRID*    4652                           .140624985098839.140625014901161
*        .2
GRID*    4653                           .126562491059303.126562505960464
*        .2
GRID*    4654                           .112499989569187.112500004470348
*        .2
GRID*    4655                           -.19687500596046.112499974668026
*        .2
GRID*    4656                           -.18281251192093 .09843747317791
*        .2
$ ... 666 like lines cut
GRID     5968           -.140625-.140625 0.
GRID*    5970                           -.11249999701977-.11249999701977
*        0.
GRID*    5971                           -.18281249701977-.18281249701977
*        0.
GRID*    5972                           -.19687500596046-.19687500596046
*        0.
GRID*    5973                            -.2109375       -.2109375
*        0.
GRID*    5974                           -.22499999403954-.22499999403954
*        0.
GRID*    5975                           -.20624999701977-.22499999403954
*        0.
GRID*    5976                           -.19498908519745-.21414971351624
*        0.
GRID*    5977                           -.18242983520031-.20362676680088
*        0.
GRID*    5978                            -.1875         -.22499999403954
*        0.
GRID*    5979                           -.18009623885155-.21731333434582
*        0.
GRID*    5980                           -.16880922019482-.19321949779987
*        0.
GRID*    5981                           -.16887353360653-.21046978235245
*        0.
GRID*    5982                           -.16883634030819 -.219875395298
*        0.
GRID*    5983                           -.16874998807907-.22499999403954
*        0.
GRID*    5984                           -.15760126709938-.21739107370377
*        0.
GRID*    5985                            -.1499999910593-.22499999403954
*        0.
GRID*    5986                           -.15525072813034-.20369583368301
*        0.
GRID*    5987                           -.14266611635685-.21425610780716
*        0.
GRID*    5988                           -.13124999403954-.22499999403954
*        0.
GRID*    5989                            -.09375        -.22499999403954
*        0.
$ ... 628 like lines cut
GRID     6311            .140625-.140625 0.
GRID*    6313                           .112500004470348-.11249998956919
*        0.
GRID*    6314                           .112499982118607.196875005960464
*        0.
GRID*    6315                            .09843748062849.182812511920929
*        0.
GRID*    6316                           .084374979138374.168750002980232
*        0.
GRID*    6317                           .070312485098839.154687508940697
*        0.
GRID*    6318                           .126562491059303.182812511920929
*        0.
GRID*    6319                           .112499982118607.168750002980232
*        0.
GRID*    6320                            .09843748062849.154687508940697
*        0.
GRID*    6321                           .084374986588955 .140625
*        0.
GRID*    6322                           .140624985098839.168750017881393
*        0.
GRID*    6323                           .126562491059303.154687508940697
*        0.
GRID*    6324                           .112499982118607 .140625
*        0.
GRID*    6325                           .098437488079071.126562505960464
*        0.
GRID*    6326                           .154687494039536.154687523841858
*        0.
GRID*    6327                           .140624985098839.140625014901161
*        0.
GRID*    6329                           .112499989569187.112500004470348
*        0.
GRID*    6330                           -.19687500596046.112499974668026
*        0.
GRID*    6331                           -.18281251192093 .09843747317791
*        0.
GRID*    6332                           -.16875001788139.084374971687794
*        0.
GRID*    6333                            -.1546875089407.070312477648258
*        0.
$ ... 3210 like lines cut
