$ Elements and Element Properties for region : BEAM_I_1D
PBARL    1       1               I
         .2      .05     .05     .005    .005    .005
$ Pset: "BEAM_I_1D" will be imported as: "pbarl.1"
CBAR     1       1       1       2       0.      0.      1.
CBAR     2       1       2       3       0.      0.      1.
CBAR     3       1       3       4       0.      0.      1.
CBAR     4       1       4       5       0.      0.      1.
CBAR     5       1       5       6       0.      0.      1.
CBAR     6       1       6       7       0.      0.      1.
CBAR     7       1       7       8       0.      0.      1.
CBAR     8       1       8       9       0.      0.      1.
CBAR     9       1       9       10      0.      0.      1.
CBAR     10      1       10      11      0.      0.      1.
CBAR     11      1       11      12      0.      0.      1.
CBAR     12      1       12      13      0.      0.      1.
CBAR     13      1       13      14      0.      0.      1.
CBAR     14      1       14      15      0.      0.      1.
CBAR     15      1       15      16      0.      0.      1.
CBAR     16      1       16      17      0.      0.      1.
CBAR     17      1       17      18      0.      0.      1.
CBAR     18      1       18      19      0.      0.      1.
CBAR     19      1       19      20      0.      0.      1.
CBAR     20      1       20      21      0.      0.      1.
$ ... 10 like lines cut
$ Elements and Element Properties for region : m20kg
CONM2    31      31              20.
$ Referenced Material Records
$ Material Record : ACERO
$ Description of Material : Date: 04-Apr-23           Time: 21:43:49
MAT1     1       2.+11           .3      7900.
$ Nodes of the Entire Model
GRID     1               0.      0.      0.
GRID*    2                              .010000000707805 0.
*        0.
GRID*    3                               .02000000141561 0.
*        0.
GRID*    4                              .030000001192093 0.
*        0.
GRID*    5                              .040000002831221 0.
*        0.
GRID*    6                              .050000008195639 0.
*        0.
GRID*    7                              .060000006109476 0.
*        0.
GRID*    8                              .070000007748604 0.
*        0.
GRID*    9                              .080000013113022 0.
*        0.
GRID*    10                             .090000011026859 0.
*        0.
GRID*    11                             .100000023841858 0.
*        0.
GRID*    12                             .110000021755695 0.
*        0.
GRID*    13                             .120000019669533 0.
*        0.
GRID*    14                             .130000025033951 0.
*        0.
GRID*    15                             .140000015497208 0.
*        0.
GRID*    16                             .150000020861626 0.
*        0.
GRID*    17                             .160000026226044 0.
*        0.
GRID*    18                             .170000016689301 0.
*        0.
GRID*    19                             .180000022053719 0.
*        0.
GRID*    20                             .190000042319298 0.
*        0.
GRID*    21                             .200000047683716 0.
*        0.
$ ... 20 like lines cut
$ Loads for Load Case : Default
$ Referenced Coordinate Frames
ENDDATA 4df14dfc
