
$ Elements and Element Properties for region : VIGA_H_CM
PBARL    1       1               I1
         .0225   .005    .19     .2
$ Pset: "VIGA_H_CM" will be imported as: "pbarl.1"
CBAR     1000    1       1000    1001    0.      0.      1.
CBAR     1001    1       1001    1002    0.      0.      1.
CBAR     1002    1       1002    1003    0.      0.      1.
CBAR     1003    1       1003    1004    0.      0.      1.
CBAR     1004    1       1004    1005    0.      0.      1.
CBAR     1005    1       1005    1006    0.      0.      1.
CBAR     1006    1       1006    1007    0.      0.      1.
CBAR     1007    1       1007    1008    0.      0.      1.
CBAR     1008    1       1008    1009    0.      0.      1.
CBAR     1009    1       1009    1010    0.      0.      1.
CBAR     1010    1       1010    1011    0.      0.      1.
CBAR     1011    1       1011    1012    0.      0.      1.
CBAR     1012    1       1012    1013    0.      0.      1.
CBAR     1013    1       1013    1014    0.      0.      1.
CBAR     1014    1       1014    1015    0.      0.      1.
CBAR     1015    1       1015    1016    0.      0.      1.
CBAR     1016    1       1016    1017    0.      0.      1.
CBAR     1017    1       1017    1018    0.      0.      1.
CBAR     1018    1       1018    1019    0.      0.      1.
CBAR     1019    1       1019    1020    0.      0.      1.
$ ... 10 like lines cut
$ Elements and Element Properties for region : M20kg
CONM2    100     1030            20.
*        5.4727097-6     0.              1.9309907-8
*
$ Referenced Material Records
$ Material Record : ACERO
$ Description of Material : Date: 16-Mar-23           Time: 18:39:19
MAT1     1       2.+11           .3      7900.
$ Nodes of the Entire Model
GRID     1000            0.      0.      0.
GRID*    1001                            0.             .010000000707805
*        0.
GRID*    1002                            0.              .02000000141561
*        0.
GRID*    1003                            0.             .030000001192093
*        0.
GRID*    1004                            0.             .040000002831221
*        0.
GRID*    1005                            0.             .050000008195639
*        0.
GRID*    1006                            0.             .060000006109476
*        0.
GRID*    1007                            0.             .070000007748604
*        0.
GRID*    1008                            0.             .080000013113022
*        0.
GRID*    1009                            0.             .090000011026859
*        0.
GRID*    1010                            0.             .100000023841858
*        0.
GRID*    1011                            0.             .110000021755695
*        0.
GRID*    1012                            0.             .120000019669533
*        0.
GRID*    1013                            0.             .130000025033951
*        0.
GRID*    1014                            0.             .140000015497208
*        0.
GRID*    1015                            0.             .150000020861626
*        0.
GRID*    1016                            0.             .160000026226044
*        0.
GRID*    1017                            0.             .170000016689301
*        0.
GRID*    1018                            0.             .180000022053719
*        0.
GRID*    1019                            0.             .190000042319298
*        0.
GRID*    1020                            0.             .200000047683716
*        0.
$ ... 20 like lines cut
$ Loads for Load Case : Default
$ Referenced Coordinate Frames
ENDDATA 5db2bce9
