$ MSC.Nastran input file created on April     04, 2023 at 13:59:47 by
$ Patran 2022.1  (Student Edition)
$ Direct Text Input for Nastran System Cell Section
$ Direct Text Input for File Management Section
$ Direct Text Input for Executive Control
$ Normal Modes Analysis, Database
SOL 103
CEND
$ Direct Text Input for Global Case Control Data
TITLE = MSC.Nastran job created on 04-Apr-23 at 13:59:26
ECHO = NONE
$ Using Nastran default values for RESVEC
SUBCASE 1
   SUBTITLE=LOADCASE
   METHOD = 1
   SPC = 2
   VECTOR(SORT1,REAL)=ALL
   SPCFORCES(SORT1,REAL)=ALL
$ Direct Text Input for this Subcase
BEGIN BULK
$ Direct Text Input for Bulk Data
MDLPRM   HDF5    0
PARAM   PRTMAXIM YES
EIGRL    1                       10      0                       MASS
$ Elements and Element Properties for region : BEAM2D_3mm
PSHELL   1       1       .003    1               1
$ Pset: "BEAM2D_3mm" will be imported as: "pshell.1"
CQUAD4   1000    1       1000    1001    1022    1021
CQUAD4   1001    1       1001    1002    1023    1022
CQUAD4   1002    1       1002    1003    1024    1023
CQUAD4   1003    1       1003    1004    1025    1024
CQUAD4   1004    1       1004    1005    1026    1025
CQUAD4   1005    1       1005    1006    1027    1026
CQUAD4   1006    1       1006    1007    1028    1027
CQUAD4   1007    1       1007    1008    1029    1028
CQUAD4   1008    1       1008    1009    1030    1029
CQUAD4   1009    1       1009    1010    1031    1030
CQUAD4   1010    1       1010    1011    1032    1031
CQUAD4   1011    1       1011    1012    1033    1032
CQUAD4   1012    1       1012    1013    1034    1033
CQUAD4   1013    1       1013    1014    1035    1034
CQUAD4   1014    1       1014    1015    1036    1035
CQUAD4   1015    1       1015    1016    1037    1036
CQUAD4   1016    1       1016    1017    1038    1037
CQUAD4   1017    1       1017    1018    1039    1038
CQUAD4   1018    1       1018    1019    1040    1039
CQUAD4   1019    1       1019    1000    1021    1040
$ ... 1580 like lines cut
$ Elements and Element Properties for region : M20kg
CONM2    2600    2               20.
$ Referenced Material Records
$ Material Record : ALUMINIO
$ Description of Material : Date: 16-Mar-23           Time: 18:39:19
MAT1*    1               7.0000001+10                    .3
*        2700.
$ Multipoint Constraints of the Entire Model
RBE2     11      1       123456  1000    1001    1002    1003    1004
         1005    1006    1007    1008    1009    1010    1011    1012
         1013    1014    1015    1016    1017    1018    1019
RBE2     12      2       123456  2680    2681    2682    2683    2684
         2685    2686    2687    2688    2689    2690    2691    2692
         2693    2694    2695    2696    2697    2698    2699
$ Nodes of the Entire Model
GRID     1               0.      0.      0.
GRID*    2                               0.              0.
*       .600000023841858
GRID*    1000                           .059999998658895 0.
*        0.
GRID*    1001                           .057063564658165.018540479242802
*        0.
GRID*    1002                           .048540908843279.035267267376184
*        0.
GRID*    1003                           .035266365855932.048541560769081
*        0.
GRID*    1004                           .018540430814028.057063579559326
*        0.
GRID*    1005                           2.659704705366-7.059999998658895
*        0.
GRID*    1006                           -.01854152977467.057063221931458
*        0.
GRID*    1007                           -.03526806086302.048540331423283
*        0.
GRID*    1008                           -.04854172095656.035266146063805
*        0.
GRID*    1009                            -.057063434273 .018540885299444
*        0.
GRID*    1010                            -.0599999986589 -4.686978059-7
*        0.
GRID*    1011                           -.05706296861172-.01854231394827
*        0.
GRID*    1012                            -.0485400557518-.03526843711734
*        0.
GRID*    1013                           -.03526670858264-.04854131489992
*        0.
GRID*    1014                           -.01854054443538-.05706354230642
*        0.
GRID*    1015                           1.331163616669-6 -.0599999986589
*        0.
GRID*    1016                           .018542736768723-.05706283077598
*        0.
GRID*    1017                           .035267721861601-.04854057729244
*        0.
GRID*    1018                           .048541221767664-.03526683524251
*        0.
$ ... 3202 like lines cut
$ Loads for Load Case : LOADCASE
SPCADD   2       1
$ Displacement Constraints of Load Set : EMPOTRAMIENTO
SPC1     1       123456  1
$ Referenced Coordinate Frames
ENDDATA 3b9e9932
