$ MSC.Nastran input file created on April     02, 2023 at 12:30:41 by
$ Patran 2022.1  (Student Edition)
$ Direct Text Input for Nastran System Cell Section
$ Direct Text Input for File Management Section
$ Direct Text Input for Executive Control
$ Normal Modes Analysis, Database
SOL 103
CEND
$ Direct Text Input for Global Case Control Data
TITLE = MSC.Nastran job created on 16-Mar-23 at 18:44:26
ECHO = NONE
$ Using Nastran default values for RESVEC
SUBCASE 1
$ Subcase name : empotrada
   SUBTITLE=empotrada
   METHOD = 1
   SPC = 2
   VECTOR(SORT1,REAL)=ALL
   SPCFORCES(SORT1,REAL)=ALL
BEGIN BULK
$ Direct Text Input for Bulk Data
MDLPRM   HDF5    0
PARAM   PRTMAXIM YES
EIGRL    1                       10      0
$ Elements and Element Properties for region : Viga2Beam1D
PBARL    1       1               ROD
*        5.0000002-4
*
$ Pset: "Viga2Beam1D" will be imported as: "pbarl.1"
CBAR     1000    1       1000    1001    0.      0.      1.
CBAR     1001    1       1001    1002    0.      0.      1.
CBAR     1002    1       1002    1003    0.      0.      1.
CBAR     1003    1       1003    1004    0.      0.      1.
CBAR     1004    1       1004    1005    0.      0.      1.
CBAR     1005    1       1005    1006    0.      0.      1.
CBAR     1006    1       1006    1007    0.      0.      1.
CBAR     1007    1       1007    1008    0.      0.      1.
CBAR     1008    1       1008    1009    0.      0.      1.
CBAR     1009    1       1009    1010    0.      0.      1.
CBAR     1010    1       1010    1011    0.      0.      1.
CBAR     1011    1       1011    1012    0.      0.      1.
CBAR     1012    1       1012    1013    0.      0.      1.
CBAR     1013    1       1013    1014    0.      0.      1.
CBAR     1014    1       1014    1015    0.      0.      1.
CBAR     1015    1       1015    1016    0.      0.      1.
CBAR     1016    1       1016    1017    0.      0.      1.
CBAR     1017    1       1017    1018    0.      0.      1.
CBAR     1018    1       1018    1019    0.      0.      1.
CBAR     1019    1       1019    1020    0.      0.      1.
$ ... 40 like lines cut
$ Elements and Element Properties for region : mass20kg
CONM2    1       1060            20.
$ Referenced Material Records
$ Material Record : Viga2
$ Description of Material : Date: 16-Mar-23           Time: 18:39:19
MAT1*    1               7.0000001+10                    .3
*        11333.
$ Multipoint Constraints of the Entire Model
$ ID conflict : the PATRAN MPC ID was 1
RBE2     1060    1060    1       1059
$ Nodes of the Entire Model
GRID     1000            0.      0.      0.
GRID*    1001                            0.             .010000000707805
*        0.
GRID*    1002                            0.              .02000000141561
*        0.
GRID*    1003                            0.             .030000001192093
*        0.
GRID*    1004                            0.             .040000002831221
*        0.
GRID*    1005                            0.             .050000008195639
*        0.
GRID*    1006                            0.             .060000006109476
*        0.
GRID*    1007                            0.             .070000007748604
*        0.
GRID*    1008                            0.             .080000013113022
*        0.
GRID*    1009                            0.             .090000011026859
*        0.
GRID*    1010                            0.             .100000023841858
*        0.
GRID*    1011                            0.             .110000021755695
*        0.
GRID*    1012                            0.             .120000019669533
*        0.
GRID*    1013                            0.             .130000025033951
*        0.
GRID*    1014                            0.             .140000015497208
*        0.
GRID*    1015                            0.             .150000020861626
*        0.
GRID*    1016                            0.             .160000026226044
*        0.
GRID*    1017                            0.             .170000016689301
*        0.
GRID*    1018                            0.             .180000022053719
*        0.
GRID*    1019                            0.             .190000042319298
*        0.
GRID*    1020                            0.             .200000047683716
*        0.
$ ... 80 like lines cut
$ Loads for Load Case : empotrada
SPCADD   2       1
$ Displacement Constraints of Load Set : empotramiento
SPC1     1       123456  1000
$ Referenced Coordinate Frames
ENDDATA 89ebeefc
