$ MSC.Nastran input file created on May       16, 2023 at 18:57:23 by
$ Patran 2022.1  (Student Edition)
$ Direct Text Input for Nastran System Cell Section
$ Direct Text Input for File Management Section
$ Direct Text Input for Executive Control
$ Normal Modes Analysis, Database
SOL 103
CEND
$ Direct Text Input for Global Case Control Data
TITLE = MSC.Nastran job created on 16-May-23 at 17:33:00
ECHO = NONE
$ Using Nastran default values for RESVEC
SUBCASE 1
$ Subcase name : Default
   SUBTITLE=Default
   METHOD = 1
   SPC = 2
   VECTOR(SORT1,REAL)=ALL
   SPCFORCES(SORT1,REAL)=ALL
BEGIN BULK
$ Direct Text Input for Bulk Data
MDLPRM   HDF5    0
PARAM   PRTMAXIM YES
EIGRL    1                       10      0
$ Elements and Element Properties for region : 1D_Beam_Ext
PBAR*    1               1               8.3999999-5     2.1469999-9
*        1.0519999-9     2.0601902-9
         .0075   .005    -.0075  .005    -.0075  -.005   .0075   -.005
        .5238095.2857143 0.
$ Pset: "1D_Beam_Ext" will be imported as: "pbar.1"
CBAR     3001    1       328     330     0.      0.      1.
                         0.      0.      -.0155  0.      0.      -.0155
CBAR     3002    1       330     332     0.      0.      1.
                         0.      0.      -.0155  0.      0.      -.0155
CBAR     3003    1       332     336     0.      0.      1.
                         0.      0.      -.0155  0.      0.      -.0155
CBAR     3004    1       336     340     0.      0.      1.
                         0.      0.      -.0155  0.      0.      -.0155
CBAR     3005    1       340     346     0.      0.      1.
                         0.      0.      -.0155  0.      0.      -.0155
CBAR     3006    1       346     353     0.      0.      1.
                         0.      0.      -.0155  0.      0.      -.0155
CBAR     3007    1       353     360     0.      0.      1.
                         0.      0.      -.0155  0.      0.      -.0155
CBAR     3008    1       296     298     0.      0.      1.
                         0.      0.      -.0155  0.      0.      -.0155
CBAR     3009    1       298     300     0.      0.      1.
                         0.      0.      -.0155  0.      0.      -.0155
CBAR     3010    1       300     304     0.      0.      1.
                         0.      0.      -.0155  0.      0.      -.0155
CBAR     3011    1       304     308     0.      0.      1.
                         0.      0.      -.0155  0.      0.      -.0155
CBAR     3012    1       308     314     0.      0.      1.
                         0.      0.      -.0155  0.      0.      -.0155
CBAR     3013    1       314     321     0.      0.      1.
                         0.      0.      -.0155  0.      0.      -.0155
CBAR     3014    1       321     328     0.      0.      1.
                         0.      0.      -.0155  0.      0.      -.0155
CBAR     3015    1       264     266     0.      0.      1.
                         0.      0.      -.0155  0.      0.      -.0155
CBAR     3016    1       266     268     0.      0.      1.
                         0.      0.      -.0155  0.      0.      -.0155
CBAR     3017    1       268     272     0.      0.      1.
                         0.      0.      -.0155  0.      0.      -.0155
CBAR     3018    1       272     276     0.      0.      1.
                         0.      0.      -.0155  0.      0.      -.0155
CBAR     3019    1       276     282     0.      0.      1.
                         0.      0.      -.0155  0.      0.      -.0155
CBAR     3020    1       282     289     0.      0.      1.
                         0.      0.      -.0155  0.      0.      -.0155
$ ... 128 like lines cut
$ Elements and Element Properties for region : 0D_Mass_Inf
CONM2*   577             1000                            39.325001
*
$ Elements and Element Properties for region : 1D_Beam_Int
PBAR*    2               1               8.3999999-5     2.1469999-9
*        1.0519999-9     2.0601902-9
         .0075   .005    -.0075  .005    -.0075  -.005   .0075   -.005
        .5238095.2857143 0.
$ Pset: "1D_Beam_Int" will be imported as: "pbar.2"
CBAR     3085    2       32      31      0.      0.      1.
                         0.      0.      -.0155  0.      0.      -.0155
CBAR     3086    2       31      30      0.      0.      1.
                         0.      0.      -.0155  0.      0.      -.0155
CBAR     3087    2       30      29      0.      0.      1.
                         0.      0.      -.0155  0.      0.      -.0155
CBAR     3088    2       29      28      0.      0.      1.
                         0.      0.      -.0155  0.      0.      -.0155
CBAR     3089    2       28      27      0.      0.      1.
                         0.      0.      -.0155  0.      0.      -.0155
CBAR     3090    2       27      21      0.      0.      1.
                         0.      0.      -.0155  0.      0.      -.0155
CBAR     3091    2       21      15      0.      0.      1.
                         0.      0.      -.0155  0.      0.      -.0155
CBAR     3092    2       15      6       0.      0.      1.
                         0.      0.      -.0155  0.      0.      -.0155
CBAR     3093    2       6       3       0.      0.      1.
                         0.      0.      -.0155  0.      0.      -.0155
CBAR     3094    2       3       1       0.      0.      1.
                         0.      0.      -.0155  0.      0.      -.0155
CBAR     3095    2       27      62      0.      0.      1.
                         0.      0.      -.0155  0.      0.      -.0155
CBAR     3096    2       62      56      0.      0.      1.
                         0.      0.      -.0155  0.      0.      -.0155
CBAR     3097    2       56      2003    0.      0.      1.
                         0.      0.      -.0155  0.      0.      -.0155
CBAR     3098    2       2003    44      0.      0.      1.
                         0.      0.      -.0155  0.      0.      -.0155
CBAR     3099    2       44      38      0.      0.      1.
                         0.      0.      -.0155  0.      0.      -.0155
CBAR     3100    2       38      37      0.      0.      1.
                         0.      0.      -.0155  0.      0.      -.0155
CBAR     3101    2       37      36      0.      0.      1.
                         0.      0.      -.0155  0.      0.      -.0155
CBAR     3102    2       36      35      0.      0.      1.
                         0.      0.      -.0155  0.      0.      -.0155
CBAR     3103    2       35      34      0.      0.      1.
                         0.      0.      -.0155  0.      0.      -.0155
CBAR     3104    2       34      2002    0.      0.      1.
                         0.      0.      -.0155  0.      0.      -.0155
$ ... 320 like lines cut
$ Elements and Element Properties for region : 1D_Bush
PBUSH    3       K       1.+9    1.+9    1.+9    100.    1.+7    1.+7
$ Pset: "1D_Bush" will be imported as: "pbush.3"
CBUSH    578     3       2000    2050    1.      0.      0.
CBUSH    579     3       2001    2051    1.      0.      0.
CBUSH    580     3       2002    2052    1.      0.      0.
CBUSH    581     3       2003    2053    1.      0.      0.
CBUSH    582     3       2004    2054    1.      0.      0.
CBUSH    583     3       2005    2055    1.      0.      0.
CBUSH    584     3       2006    2056    1.      0.      0.
CBUSH    585     3       2007    2057    1.      0.      0.
$ Elements and Element Properties for region : 0D_Mass_Int
CONM2    3000    3000            11.
$ Referenced Material Records
$ Material Record : Al6061
$ Description of Material : Date: 16-May-23           Time: 10:00:48
MAT1*    1               7.0000001+10                    .33
*        2700.
$ Multipoint Constraints of the Entire Model
$ ID conflict : the PATRAN MPC ID was 2
RBE2     3265    1000    123456  1       2       4       8       12
         18      25      32      70      72      76      80      86
         93      100     102     104     108     112     118     125
         132     170     172     176     180     186     193     200
         202     204     208     212     218     225     232     234
         236     240     244     250     257     264     266     268
         272     276     282     289     296     298     300     304
         308     314     321     328     330     332     336     340
         346     353     360     362     364     368     372     378
         385     392     394     396     400     404     410     417
         424     426     428     432     436     442     449
$ ID conflict : the PATRAN MPC ID was 3
RBE2     3266    3003    123     38      138     498     570
$ Nodes of the Entire Model
GRID*    1                              -.22499999403954-.22499999403954
*        0.
GRID*    2                              -.20357142388821-.22499999403954
*        0.
GRID*    3                              -.21000000834465-.21000000834465
*        0.
GRID*    4                              -.18214285373688-.22499999403954
*        0.
GRID*    5                              -.19139710068703-.21260206401348
*        0.
GRID*    6                               -.1950000077486 -.1950000077486
*        0.
GRID*    7                              -.17343002557755-.21501290798187
*        0.
GRID*    8                              -.16071428358555-.22499999403954
*        0.
GRID*    9                              -.17858695983887-.20039533078671
*        0.
GRID*    10                             -.15697845816612-.21686071157455
*        0.
GRID*    11                              -.1631706058979-.20568683743477
*        0.
GRID*    12                             -.13928571343422-.22499999403954
*        0.
GRID*    13                             -.15028394758701-.21097311377525
*        0.
GRID*    14                             -.14342130720615-.21666252613068
*        0.
GRID*    15                              -.1799999922514 -.1799999922514
*        0.
GRID*    16                             -.16474910080433-.18839038908482
*        0.
GRID*    17                             -.15025734901428-.19675782322884
*        0.
GRID*    18                             -.11785715073347-.22499999403954
*        0.
GRID*    19                             -.13736076653004-.20535403490067
*        0.
GRID*    20                             -.12691263854504-.21458968520164
*        0.
$ ... 1210 like lines cut
$ Loads for Load Case : Default
SPCADD   2       1
$ Displacement Constraints of Load Set : SPC_CBUSH_123456
SPC1     1       123456  2050    THRU    2057
$ Referenced Coordinate Frames
ENDDATA 0424dcfe
