$ MSC.Nastran input file created on May       16, 2023 at 18:26:40 by
$ Patran 2022.1  (Student Edition)
$ Direct Text Input for Nastran System Cell Section
$ Direct Text Input for File Management Section
$ Direct Text Input for Executive Control
$ Normal Modes Analysis, Database
SOL 103
CEND
$ Direct Text Input for Global Case Control Data
TITLE = MSC.Nastran job created on 16-May-23 at 17:33:00
ECHO = NONE
$ Using Nastran default values for RESVEC
SUBCASE 1
$ Subcase name : Default
   SUBTITLE=Default
   METHOD = 1
   SPC = 2
   VECTOR(SORT1,REAL)=ALL
   SPCFORCES(SORT1,REAL)=ALL
BEGIN BULK
$ Direct Text Input for Bulk Data
MDLPRM   HDF5    0
PARAM   PRTMAXIM YES
EIGRL    1                       10      0
$ Elements and Element Properties for region : 2D_Shell_Al6061
PSHELL   1       1       .005    1               1
$ Pset: "2D_Shell_Al6061" will be imported as: "pshell.1"
CQUAD4   1       1       3       1       2       5
CQUAD4   2       1       5       2       4       7
CQUAD4   3       1       7       4       8       10
CQUAD4   4       1       3       5       9       6
CQUAD4   5       1       5       7       11      9
CQUAD4   6       1       7       10      13      11
CTRIA3   7       1       10      14      13
CQUAD4   8       1       10      8       12      14
CQUAD4   9       1       6       9       16      15
CQUAD4   10      1       9       11      17      16
CQUAD4   11      1       11      13      19      17
CQUAD4   12      1       13      14      20      19
CQUAD4   13      1       14      12      18      20
CQUAD4   14      1       15      16      22      21
CQUAD4   15      1       16      17      23      22
CQUAD4   16      1       17      19      24      23
CQUAD4   17      1       19      20      26      24
CQUAD4   18      1       20      18      25      26
CQUAD4   19      1       21      22      28      27
CQUAD4   20      1       22      23      29      28
CQUAD4   21      1       23      24      30      29
CQUAD4   22      1       24      26      31      30
CQUAD4   23      1       26      25      32      31
CQUAD4   24      1       2002    34      40      39
CQUAD4   25      1       34      35      41      40
CQUAD4   26      1       35      36      42      41
CQUAD4   27      1       36      37      43      42
$ ... 27 like lines cut
CTRIA3   55      1       78      82      81
CQUAD4   56      1       78      76      80      82
CQUAD4   57      1       51      77      84      45
CQUAD4   58      1       77      79      85      84
CQUAD4   59      1       79      81      87      85
CQUAD4   60      1       81      82      88      87
CQUAD4   61      1       82      80      86      88
CQUAD4   62      1       45      84      90      39
CQUAD4   63      1       84      85      91      90
CQUAD4   64      1       85      87      92      91
CQUAD4   65      1       87      88      94      92
CQUAD4   66      1       88      86      93      94
CQUAD4   67      1       39      90      96      2002
CQUAD4   68      1       90      91      97      96
CQUAD4   69      1       91      92      98      97
CQUAD4   70      1       92      94      99      98
CQUAD4   71      1       94      93      100     99
CQUAD4   72      1       103     100     102     105
CQUAD4   73      1       105     102     104     107
CQUAD4   74      1       107     104     108     110
CQUAD4   75      1       103     105     109     106
CQUAD4   76      1       105     107     111     109
CQUAD4   77      1       107     110     113     111
CTRIA3   78      1       110     114     113
CQUAD4   79      1       110     108     112     114
CQUAD4   80      1       106     109     116     115
CQUAD4   81      1       109     111     117     116
CQUAD4   82      1       111     113     119     117
CQUAD4   83      1       113     114     120     119
CQUAD4   84      1       114     112     118     120
CQUAD4   85      1       115     116     122     121
CQUAD4   86      1       116     117     123     122
CQUAD4   87      1       117     119     124     123
CQUAD4   88      1       119     120     126     124
CQUAD4   89      1       120     118     125     126
CQUAD4   90      1       121     122     128     127
CQUAD4   91      1       122     123     129     128
CQUAD4   92      1       123     124     130     129
CQUAD4   93      1       124     126     131     130
CQUAD4   94      1       126     125     132     131
CQUAD4   95      1       127     134     140     121
CQUAD4   96      1       134     135     141     140
CQUAD4   97      1       135     2001    142     141
CQUAD4   98      1       2001    137     143     142
$ ... 27 like lines cut
CTRIA3   126     1       178     182     181
CQUAD4   127     1       178     176     180     182
CQUAD4   128     1       130     177     184     129
CQUAD4   129     1       177     179     185     184
CQUAD4   130     1       179     181     187     185
CQUAD4   131     1       181     182     188     187
CQUAD4   132     1       182     180     186     188
CQUAD4   133     1       129     184     190     128
CQUAD4   134     1       184     185     191     190
CQUAD4   135     1       185     187     192     191
CQUAD4   136     1       187     188     194     192
CQUAD4   137     1       188     186     193     194
CQUAD4   138     1       128     190     196     127
CQUAD4   139     1       190     191     197     196
CQUAD4   140     1       191     192     198     197
CQUAD4   141     1       192     194     199     198
CQUAD4   142     1       194     193     200     199
CQUAD4   143     1       203     200     202     205
CQUAD4   144     1       205     202     204     207
CQUAD4   145     1       207     204     208     210
CQUAD4   146     1       203     205     209     206
CQUAD4   147     1       205     207     211     209
CQUAD4   148     1       207     210     213     211
CTRIA3   149     1       210     214     213
CQUAD4   150     1       210     208     212     214
CQUAD4   151     1       206     209     216     215
CQUAD4   152     1       209     211     217     216
CQUAD4   153     1       211     213     219     217
CQUAD4   154     1       213     214     220     219
CQUAD4   155     1       214     212     218     220
CQUAD4   156     1       215     216     222     221
CQUAD4   157     1       216     217     223     222
CQUAD4   158     1       217     219     224     223
CQUAD4   159     1       219     220     226     224
CQUAD4   160     1       220     218     225     226
CQUAD4   161     1       221     222     228     2000
CQUAD4   162     1       222     223     229     228
CQUAD4   163     1       223     224     230     229
CQUAD4   164     1       224     226     231     230
CQUAD4   165     1       226     225     232     231
CQUAD4   166     1       235     232     234     237
CQUAD4   167     1       237     234     236     239
CQUAD4   168     1       239     236     240     242
CQUAD4   169     1       235     237     241     238
CQUAD4   170     1       237     239     243     241
CQUAD4   171     1       239     242     245     243
CTRIA3   172     1       242     246     245
CQUAD4   173     1       242     240     244     246
CQUAD4   174     1       238     241     248     247
CQUAD4   175     1       241     243     249     248
CQUAD4   176     1       243     245     251     249
CQUAD4   177     1       245     246     252     251
CQUAD4   178     1       246     244     250     252
CQUAD4   179     1       247     248     254     253
CQUAD4   180     1       248     249     255     254
CQUAD4   181     1       249     251     256     255
CQUAD4   182     1       251     252     258     256
CQUAD4   183     1       252     250     257     258
CQUAD4   184     1       253     254     260     259
CQUAD4   185     1       254     255     261     260
CQUAD4   186     1       255     256     262     261
CQUAD4   187     1       256     258     263     262
CQUAD4   188     1       258     257     264     263
CQUAD4   189     1       263     264     266     269
CQUAD4   190     1       269     266     268     271
CQUAD4   191     1       271     268     272     274
CQUAD4   192     1       263     269     273     262
CQUAD4   193     1       269     271     275     273
CQUAD4   194     1       271     274     277     275
CTRIA3   195     1       274     278     277
CQUAD4   196     1       274     272     276     278
CQUAD4   197     1       262     273     280     261
CQUAD4   198     1       273     275     281     280
CQUAD4   199     1       275     277     283     281
CQUAD4   200     1       277     278     284     283
CQUAD4   201     1       278     276     282     284
CQUAD4   202     1       261     280     286     260
CQUAD4   203     1       280     281     287     286
CQUAD4   204     1       281     283     288     287
CQUAD4   205     1       283     284     290     288
CQUAD4   206     1       284     282     289     290
CQUAD4   207     1       260     286     292     259
CQUAD4   208     1       286     287     293     292
CQUAD4   209     1       287     288     294     293
CQUAD4   210     1       288     290     295     294
CQUAD4   211     1       290     289     296     295
CQUAD4   212     1       299     296     298     301
CQUAD4   213     1       301     298     300     303
CQUAD4   214     1       303     300     304     306
CQUAD4   215     1       299     301     305     302
CQUAD4   216     1       301     303     307     305
CQUAD4   217     1       303     306     309     307
CTRIA3   218     1       306     310     309
CQUAD4   219     1       306     304     308     310
CQUAD4   220     1       302     305     312     311
CQUAD4   221     1       305     307     313     312
CQUAD4   222     1       307     309     315     313
CQUAD4   223     1       309     310     316     315
CQUAD4   224     1       310     308     314     316
CQUAD4   225     1       311     312     318     317
CQUAD4   226     1       312     313     319     318
CQUAD4   227     1       313     315     320     319
CQUAD4   228     1       315     316     322     320
CQUAD4   229     1       316     314     321     322
CQUAD4   230     1       317     318     324     2006
CQUAD4   231     1       318     319     325     324
CQUAD4   232     1       319     320     326     325
CQUAD4   233     1       320     322     327     326
CQUAD4   234     1       322     321     328     327
CQUAD4   235     1       331     328     330     333
CQUAD4   236     1       333     330     332     335
CQUAD4   237     1       335     332     336     338
CQUAD4   238     1       331     333     337     334
CQUAD4   239     1       333     335     339     337
CQUAD4   240     1       335     338     341     339
CTRIA3   241     1       338     342     341
CQUAD4   242     1       338     336     340     342
CQUAD4   243     1       334     337     344     343
CQUAD4   244     1       337     339     345     344
CQUAD4   245     1       339     341     347     345
CQUAD4   246     1       341     342     348     347
CQUAD4   247     1       342     340     346     348
CQUAD4   248     1       343     344     350     349
CQUAD4   249     1       344     345     351     350
CQUAD4   250     1       345     347     352     351
CQUAD4   251     1       347     348     354     352
CQUAD4   252     1       348     346     353     354
CQUAD4   253     1       349     350     356     355
CQUAD4   254     1       350     351     357     356
CQUAD4   255     1       351     352     358     357
CQUAD4   256     1       352     354     359     358
CQUAD4   257     1       354     353     360     359
CQUAD4   258     1       359     360     362     365
CQUAD4   259     1       365     362     364     367
CQUAD4   260     1       367     364     368     370
CQUAD4   261     1       359     365     369     358
CQUAD4   262     1       365     367     371     369
CQUAD4   263     1       367     370     373     371
CTRIA3   264     1       370     374     373
CQUAD4   265     1       370     368     372     374
CQUAD4   266     1       358     369     376     357
CQUAD4   267     1       369     371     377     376
CQUAD4   268     1       371     373     379     377
CQUAD4   269     1       373     374     380     379
CQUAD4   270     1       374     372     378     380
CQUAD4   271     1       357     376     382     356
CQUAD4   272     1       376     377     383     382
CQUAD4   273     1       377     379     384     383
CQUAD4   274     1       379     380     386     384
CQUAD4   275     1       380     378     385     386
CQUAD4   276     1       356     382     388     355
CQUAD4   277     1       382     383     389     388
CQUAD4   278     1       383     384     390     389
CQUAD4   279     1       384     386     391     390
CQUAD4   280     1       386     385     392     391
CQUAD4   281     1       395     392     394     397
CQUAD4   282     1       397     394     396     399
CQUAD4   283     1       399     396     400     402
CQUAD4   284     1       395     397     401     398
CQUAD4   285     1       397     399     403     401
CQUAD4   286     1       399     402     405     403
CTRIA3   287     1       402     406     405
CQUAD4   288     1       402     400     404     406
CQUAD4   289     1       398     401     408     407
CQUAD4   290     1       401     403     409     408
CQUAD4   291     1       403     405     411     409
CQUAD4   292     1       405     406     412     411
CQUAD4   293     1       406     404     410     412
CQUAD4   294     1       407     408     414     413
CQUAD4   295     1       408     409     415     414
CQUAD4   296     1       409     411     416     415
CQUAD4   297     1       411     412     418     416
CQUAD4   298     1       412     410     417     418
CQUAD4   299     1       413     414     420     2004
CQUAD4   300     1       414     415     421     420
CQUAD4   301     1       415     416     422     421
CQUAD4   302     1       416     418     423     422
CQUAD4   303     1       418     417     424     423
CQUAD4   304     1       427     424     426     429
CQUAD4   305     1       429     426     428     431
CQUAD4   306     1       431     428     432     434
CQUAD4   307     1       427     429     433     430
CQUAD4   308     1       429     431     435     433
CQUAD4   309     1       431     434     437     435
CTRIA3   310     1       434     438     437
CQUAD4   311     1       434     432     436     438
CQUAD4   312     1       430     433     440     439
CQUAD4   313     1       433     435     441     440
CQUAD4   314     1       435     437     443     441
CQUAD4   315     1       437     438     444     443
CQUAD4   316     1       438     436     442     444
CQUAD4   317     1       439     440     446     445
CQUAD4   318     1       440     441     447     446
CQUAD4   319     1       441     443     448     447
CQUAD4   320     1       443     444     450     448
CQUAD4   321     1       444     442     449     450
CQUAD4   322     1       445     446     21      27
CQUAD4   323     1       446     447     15      21
CQUAD4   324     1       447     448     6       15
CQUAD4   325     1       448     450     3       6
CQUAD4   326     1       450     449     1       3
CQUAD4   327     1       2000    458     464     221
CQUAD4   328     1       458     459     465     464
CQUAD4   329     1       459     460     466     465
CQUAD4   330     1       460     461     467     466
$ ... 246 like lines cut
$ Elements and Element Properties for region : 1D_Beam_Ext
PBAR*    2               1               8.3999999-5     2.1469999-9
*        1.0519999-9     2.0601902-9
         .0075   .005    -.0075  .005    -.0075  -.005   .0075   -.005
        .5238095.2857143 0.
$ Pset: "1D_Beam_Ext" will be imported as: "pbar.2"
CBAR     3001    2       328     330     0.      0.      1.
                         0.      0.      -.01    0.      0.      -.01
CBAR     3002    2       330     332     0.      0.      1.
                         0.      0.      -.01    0.      0.      -.01
CBAR     3003    2       332     336     0.      0.      1.
                         0.      0.      -.01    0.      0.      -.01
CBAR     3004    2       336     340     0.      0.      1.
                         0.      0.      -.01    0.      0.      -.01
CBAR     3005    2       340     346     0.      0.      1.
                         0.      0.      -.01    0.      0.      -.01
CBAR     3006    2       346     353     0.      0.      1.
                         0.      0.      -.01    0.      0.      -.01
CBAR     3007    2       353     360     0.      0.      1.
                         0.      0.      -.01    0.      0.      -.01
CBAR     3008    2       296     298     0.      0.      1.
                         0.      0.      -.01    0.      0.      -.01
CBAR     3009    2       298     300     0.      0.      1.
                         0.      0.      -.01    0.      0.      -.01
CBAR     3010    2       300     304     0.      0.      1.
                         0.      0.      -.01    0.      0.      -.01
CBAR     3011    2       304     308     0.      0.      1.
                         0.      0.      -.01    0.      0.      -.01
CBAR     3012    2       308     314     0.      0.      1.
                         0.      0.      -.01    0.      0.      -.01
CBAR     3013    2       314     321     0.      0.      1.
                         0.      0.      -.01    0.      0.      -.01
CBAR     3014    2       321     328     0.      0.      1.
                         0.      0.      -.01    0.      0.      -.01
CBAR     3015    2       264     266     0.      0.      1.
                         0.      0.      -.01    0.      0.      -.01
CBAR     3016    2       266     268     0.      0.      1.
                         0.      0.      -.01    0.      0.      -.01
CBAR     3017    2       268     272     0.      0.      1.
                         0.      0.      -.01    0.      0.      -.01
CBAR     3018    2       272     276     0.      0.      1.
                         0.      0.      -.01    0.      0.      -.01
CBAR     3019    2       276     282     0.      0.      1.
                         0.      0.      -.01    0.      0.      -.01
CBAR     3020    2       282     289     0.      0.      1.
                         0.      0.      -.01    0.      0.      -.01
$ ... 128 like lines cut
$ Elements and Element Properties for region : 0D_Mass_Inf
CONM2*   577             1000                            39.325001
*
$ Elements and Element Properties for region : 1D_Beam_Int
PBAR*    3               1               8.3999999-5     2.1469999-9
*        1.0519999-9     2.0601902-9
         .0075   .005    -.0075  .005    -.0075  -.005   .0075   -.005
        .5238095.2857143 0.
$ Pset: "1D_Beam_Int" will be imported as: "pbar.3"
CBAR     3085    3       32      31      0.      0.      1.
                         0.      0.      -.01    0.      0.      -.01
CBAR     3086    3       31      30      0.      0.      1.
                         0.      0.      -.01    0.      0.      -.01
CBAR     3087    3       30      29      0.      0.      1.
                         0.      0.      -.01    0.      0.      -.01
CBAR     3088    3       29      28      0.      0.      1.
                         0.      0.      -.01    0.      0.      -.01
CBAR     3089    3       28      27      0.      0.      1.
                         0.      0.      -.01    0.      0.      -.01
CBAR     3090    3       27      21      0.      0.      1.
                         0.      0.      -.01    0.      0.      -.01
CBAR     3091    3       21      15      0.      0.      1.
                         0.      0.      -.01    0.      0.      -.01
CBAR     3092    3       15      6       0.      0.      1.
                         0.      0.      -.01    0.      0.      -.01
CBAR     3093    3       6       3       0.      0.      1.
                         0.      0.      -.01    0.      0.      -.01
CBAR     3094    3       3       1       0.      0.      1.
                         0.      0.      -.01    0.      0.      -.01
CBAR     3095    3       27      62      0.      0.      1.
                         0.      0.      -.01    0.      0.      -.01
CBAR     3096    3       62      56      0.      0.      1.
                         0.      0.      -.01    0.      0.      -.01
CBAR     3097    3       56      2003    0.      0.      1.
                         0.      0.      -.01    0.      0.      -.01
CBAR     3098    3       2003    44      0.      0.      1.
                         0.      0.      -.01    0.      0.      -.01
CBAR     3099    3       44      38      0.      0.      1.
                         0.      0.      -.01    0.      0.      -.01
CBAR     3100    3       38      37      0.      0.      1.
                         0.      0.      -.01    0.      0.      -.01
CBAR     3101    3       37      36      0.      0.      1.
                         0.      0.      -.01    0.      0.      -.01
CBAR     3102    3       36      35      0.      0.      1.
                         0.      0.      -.01    0.      0.      -.01
CBAR     3103    3       35      34      0.      0.      1.
                         0.      0.      -.01    0.      0.      -.01
CBAR     3104    3       34      2002    0.      0.      1.
                         0.      0.      -.01    0.      0.      -.01
$ ... 320 like lines cut
$ Elements and Element Properties for region : 1D_Bush
PBUSH    4       K       1.+9    1.+9    1.+9    100.    1.+7    1.+7
$ Pset: "1D_Bush" will be imported as: "pbush.4"
CBUSH    578     4       2000    2050    1.      0.      0.
CBUSH    579     4       2001    2051    1.      0.      0.
CBUSH    580     4       2002    2052    1.      0.      0.
CBUSH    581     4       2003    2053    1.      0.      0.
CBUSH    582     4       2004    2054    1.      0.      0.
CBUSH    583     4       2005    2055    1.      0.      0.
CBUSH    584     4       2006    2056    1.      0.      0.
CBUSH    585     4       2007    2057    1.      0.      0.
$ Elements and Element Properties for region : 0D_Mass_Int
CONM2    3000    3000            11.
$ Referenced Material Records
$ Material Record : Al6061
$ Description of Material : Date: 16-May-23           Time: 10:00:48
MAT1*    1               7.0000001+10                    .33
*        2700.
$ Multipoint Constraints of the Entire Model
$ ID conflict : the PATRAN MPC ID was 2
RBE2     3265    1000    123456  1       2       4       8       12
         18      25      32      70      72      76      80      86
         93      100     102     104     108     112     118     125
         132     170     172     176     180     186     193     200
         202     204     208     212     218     225     232     234
         236     240     244     250     257     264     266     268
         272     276     282     289     296     298     300     304
         308     314     321     328     330     332     336     340
         346     353     360     362     364     368     372     378
         385     392     394     396     400     404     410     417
         424     426     428     432     436     442     449
$ ID conflict : the PATRAN MPC ID was 3
RBE2     3266    3003    123     38      138     498     570
$ Nodes of the Entire Model
GRID*    1                              -.22499999403954-.22499999403954
*        0.
GRID*    2                              -.20357142388821-.22499999403954
*        0.
GRID*    3                              -.21000000834465-.21000000834465
*        0.
GRID*    4                              -.18214285373688-.22499999403954
*        0.
GRID*    5                              -.19139710068703-.21260206401348
*        0.
GRID*    6                               -.1950000077486 -.1950000077486
*        0.
GRID*    7                              -.17343002557755-.21501290798187
*        0.
GRID*    8                              -.16071428358555-.22499999403954
*        0.
GRID*    9                              -.17858695983887-.20039533078671
*        0.
GRID*    10                             -.15697845816612-.21686071157455
*        0.
GRID*    11                              -.1631706058979-.20568683743477
*        0.
GRID*    12                             -.13928571343422-.22499999403954
*        0.
GRID*    13                             -.15028394758701-.21097311377525
*        0.
GRID*    14                             -.14342130720615-.21666252613068
*        0.
GRID*    15                              -.1799999922514 -.1799999922514
*        0.
GRID*    16                             -.16474910080433-.18839038908482
*        0.
GRID*    17                             -.15025734901428-.19675782322884
*        0.
GRID*    18                             -.11785715073347-.22499999403954
*        0.
GRID*    19                             -.13736076653004-.20535403490067
*        0.
GRID*    20                             -.12691263854504-.21458968520164
*        0.
$ ... 1210 like lines cut
$ Loads for Load Case : Default
SPCADD   2       1
$ Displacement Constraints of Load Set : SPC_CBUSH_123456
SPC1     1       123456  2050    THRU    2057
$ Referenced Coordinate Frames
ENDDATA feebba7c
