$ Elements and Element Properties for region : 2D_Shell_Al6061
PSHELL   1       1       .003    1               1
$ Pset: "2D_Shell_Al6061" will be imported as: "pshell.1"
CQUAD4   3000    1       1000    1001    1181    1034
CQUAD4   3001    1       1001    1002    1182    1181
CQUAD4   3002    1       1002    1003    1183    1182
CQUAD4   3003    1       1003    1004    1184    1183
CQUAD4   3004    1       1004    1005    1185    1184
CQUAD4   3005    1       1005    1006    1186    1185
CQUAD4   3006    1       1006    1007    1021    1186
CQUAD4   3007    1       1034    1181    1187    1033
CQUAD4   3008    1       1181    1182    1188    1187
CQUAD4   3009    1       1182    1183    1189    1188
CQUAD4   3010    1       1183    1184    1190    1189
CQUAD4   3011    1       1184    1185    1191    1190
CQUAD4   3012    1       1185    1186    1192    1191
CQUAD4   3013    1       1186    1021    1020    1192
CQUAD4   3014    1       1033    1187    1193    1032
CQUAD4   3015    1       1187    1188    1194    1193
CQUAD4   3016    1       1188    1189    1195    1194
CQUAD4   3017    1       1189    1190    1196    1195
CQUAD4   3018    1       1190    1191    1197    1196
CQUAD4   3019    1       1191    1192    1198    1197
$ ... 536 like lines cut
$ Elements and Element Properties for region : 1D_Beam_Ext
PBARL    2       1               BAR
         .0095   .013
$ Pset: "1D_Beam_Ext" will be imported as: "pbarl.2"
CBAR     2000    2       1094    1109    0.      0.      1.
                         0.      0.      -.008   0.      0.      -.008
CBAR     2001    2       1109    1110    0.      0.      1.
                         0.      0.      -.008   0.      0.      -.008
CBAR     2002    2       1110    1111    0.      0.      1.
                         0.      0.      -.008   0.      0.      -.008
CBAR     2003    2       1111    1112    0.      0.      1.
                         0.      0.      -.008   0.      0.      -.008
CBAR     2004    2       1112    1113    0.      0.      1.
                         0.      0.      -.008   0.      0.      -.008
CBAR     2005    2       1113    1114    0.      0.      1.
                         0.      0.      -.008   0.      0.      -.008
CBAR     2006    2       1114    1115    0.      0.      1.
                         0.      0.      -.008   0.      0.      -.008
CBAR     2007    2       1115    1116    0.      0.      1.
                         0.      0.      -.008   0.      0.      -.008
CBAR     2008    2       1116    1117    0.      0.      1.
                         0.      0.      -.008   0.      0.      -.008
CBAR     2009    2       1117    1075    0.      0.      1.
                         0.      0.      -.008   0.      0.      -.008
CBAR     2010    2       1075    1118    0.      0.      1.
                         0.      0.      -.008   0.      0.      -.008
CBAR     2011    2       1118    1119    0.      0.      1.
                         0.      0.      -.008   0.      0.      -.008
CBAR     2012    2       1119    1120    0.      0.      1.
                         0.      0.      -.008   0.      0.      -.008
CBAR     2013    2       1120    1121    0.      0.      1.
                         0.      0.      -.008   0.      0.      -.008
CBAR     2014    2       1121    1122    0.      0.      1.
                         0.      0.      -.008   0.      0.      -.008
CBAR     2015    2       1122    1123    0.      0.      1.
                         0.      0.      -.008   0.      0.      -.008
CBAR     2016    2       1123    1124    0.      0.      1.
                         0.      0.      -.008   0.      0.      -.008
CBAR     2017    2       1124    1125    0.      0.      1.
                         0.      0.      -.008   0.      0.      -.008
CBAR     2018    2       1125    1126    0.      0.      1.
                         0.      0.      -.008   0.      0.      -.008
CBAR     2019    2       1126    1102    0.      0.      1.
                         0.      0.      -.008   0.      0.      -.008
$ ... 120 like lines cut
$ Elements and Element Properties for region : 1D_Beam_Rig
PBARL    3       1               I
         .015    .007    .007    .002    .002    .002
$ Pset: "1D_Beam_Rig" will be imported as: "pbarl.3"
CBAR     1000    3       1000    1001    0.      0.      1.
                         0.      0.      -.008   0.      0.      -.008
CBAR     1001    3       1001    1002    0.      0.      1.
                         0.      0.      -.008   0.      0.      -.008
CBAR     1002    3       1002    1003    0.      0.      1.
                         0.      0.      -.008   0.      0.      -.008
CBAR     1003    3       1003    1004    0.      0.      1.
                         0.      0.      -.008   0.      0.      -.008
CBAR     1004    3       1004    1005    0.      0.      1.
                         0.      0.      -.008   0.      0.      -.008
CBAR     1005    3       1005    1006    0.      0.      1.
                         0.      0.      -.008   0.      0.      -.008
CBAR     1006    3       1006    1007    0.      0.      1.
                         0.      0.      -.008   0.      0.      -.008
CBAR     1007    3       1008    1009    0.      0.      1.
                         0.      0.      -.008   0.      0.      -.008
CBAR     1008    3       1009    1010    0.      0.      1.
                         0.      0.      -.008   0.      0.      -.008
CBAR     1009    3       1010    1011    0.      0.      1.
                         0.      0.      -.008   0.      0.      -.008
CBAR     1010    3       1011    1012    0.      0.      1.
                         0.      0.      -.008   0.      0.      -.008
CBAR     1011    3       1012    1013    0.      0.      1.
                         0.      0.      -.008   0.      0.      -.008
CBAR     1012    3       1013    1014    0.      0.      1.
                         0.      0.      -.008   0.      0.      -.008
CBAR     1013    3       1014    1007    0.      0.      1.
                         0.      0.      -.008   0.      0.      -.008
CBAR     1014    3       1015    1016    0.      0.      1.
                         0.      0.      -.008   0.      0.      -.008
CBAR     1015    3       1016    1017    0.      0.      1.
                         0.      0.      -.008   0.      0.      -.008
CBAR     1016    3       1017    1018    0.      0.      1.
                         0.      0.      -.008   0.      0.      -.008
CBAR     1017    3       1018    1019    0.      0.      1.
                         0.      0.      -.008   0.      0.      -.008
CBAR     1018    3       1019    1020    0.      0.      1.
                         0.      0.      -.008   0.      0.      -.008
CBAR     1019    3       1020    1021    0.      0.      1.
                         0.      0.      -.008   0.      0.      -.008
$ ... 184 like lines cut
$ Referenced Material Records
$ Material Record : Al6061
$ Description of Material : Date: 07-May-23           Time: 10:27:58
MAT1*    1               7.0000001+10                    .33
*        2700.
$ Nodes of the Entire Model
GRID*    1000                           -.22499999403954 0.
*        0.
GRID*    1001                           -.20892857015133 -.0160714276135
*        0.
GRID*    1002                           -.19285713136196-.03214285522699
*        0.
GRID*    1003                           -.17678570747375-.04821428284049
*        0.
GRID*    1004                           -.16071428358555-.06428571045399
*        0.
GRID*    1005                           -.14464284479618-.08035714179277
*        0.
GRID*    1006                           -.12857142090797-.09642857313156
*        0.
GRID*    1007                           -.11249999701977-.11249999701977
*        0.
GRID*    1008                           -.22499999403954-.22499999403954
*        0.
GRID*    1009                           -.20892857015133-.20892857015133
*        0.
GRID*    1010                           -.19285713136196-.19285713136196
*        0.
GRID*    1011                           -.17678570747375-.17678570747375
*        0.
GRID*    1012                           -.16071428358555-.16071428358555
*        0.
GRID*    1013                           -.14464284479618-.14464284479618
*        0.
GRID*    1014                           -.12857142090797-.12857142090797
*        0.
GRID     1015            0.      0.      0.
GRID*    1016                            -.0160714276135 -.0160714276135
*        0.
GRID*    1017                           -.03214285522699-.03214285522699
*        0.
GRID*    1018                           -.04821428284049-.04821428284049
*        0.
GRID*    1019                           -.06428571045399-.06428571045399
*        0.
GRID*    1020                           -.08035714179277-.08035714179277
*        0.
GRID*    1021                           -.09642857313156-.09642857313156
*        0.
GRID*    1022                            -.0160714276135.016071427613497
*        0.
GRID*    1023                           -.03214285522699.032142855226994
*        0.
GRID*    1024                           -.04821428284049 .04821428284049
*        0.
GRID*    1025                           -.06428571045399.064285710453987
*        0.
GRID*    1026                           -.08035714179277.080357141792774
*        0.
GRID*    1027                           -.09642857313156.096428573131561
*        0.
GRID*    1028                           -.11249999701977.112499997019768
*        0.
GRID*    1029                           -.12857142090797.096428565680981
*        0.
GRID*    1030                           -.14464285969734.080357134342194
*        0.
GRID*    1031                           -.16071428358555.064285710453987
*        0.
GRID*    1032                           -.17678570747375 .0482142791152
*        0.
GRID*    1033                           -.19285714626312.032142855226994
*        0.
GRID*    1034                           -.20892857015133.016071420162916
*        0.
GRID*    1035                           .016071427613497.016071427613497
*        0.
$ ... 1122 like lines cut
