$ MSC.Nastran input file created on March     12, 2023 at 13:17:32 by
$ Patran 2022.1  (Student Edition)
$ Direct Text Input for Nastran System Cell Section
$ Direct Text Input for File Management Section
$ Direct Text Input for Executive Control
$ Linear Static Analysis, Database
SOL 101
CEND
$ Direct Text Input for Global Case Control Data
TITLE = MSC.Nastran job created on 12-Mar-23 at 13:17:32
ECHO = NONE
SUBCASE 1
$ Subcase name : Default
   SUBTITLE=Default
   DISPLACEMENT(SORT1,REAL)=ALL
   SPCFORCES(SORT1,REAL)=ALL
   STRESS(SORT1,REAL,VONMISES,BILIN)=ALL
   EXTSEOUT(STIF,DAMP,MASS,EXTID=1,DMIGPCH)
BEGIN BULK
$ Direct Text Input for Bulk Data
MDLPRM   HDF5    0
PARAM   PRTMAXIM YES
$ Elements and Element Properties for region : BEAM_1
PBARL    1       1               ROD
         .001
$ Pset: "BEAM_1" will be imported as: "pbarl.1"
CBAR     1000    1       1000    1001    0.      0.      1.
CBAR     1001    1       1001    1002    0.      0.      1.
CBAR     1002    1       1002    1003    0.      0.      1.
CBAR     1003    1       1003    1004    0.      0.      1.
CBAR     1004    1       1004    1005    0.      0.      1.
CBAR     1005    1       1005    1006    0.      0.      1.
CBAR     1006    1       1006    1007    0.      0.      1.
CBAR     1007    1       1007    1008    0.      0.      1.
CBAR     1008    1       1008    1009    0.      0.      1.
CBAR     1009    1       1009    1010    0.      0.      1.
CBAR     1010    1       1010    1011    0.      0.      1.
CBAR     1011    1       1011    1012    0.      0.      1.
CBAR     1012    1       1012    1013    0.      0.      1.
CBAR     1013    1       1013    1014    0.      0.      1.
CBAR     1014    1       1014    1015    0.      0.      1.
CBAR     1015    1       1015    1016    0.      0.      1.
CBAR     1016    1       1016    1017    0.      0.      1.
CBAR     1017    1       1017    1018    0.      0.      1.
CBAR     1018    1       1018    1019    0.      0.      1.
CBAR     1019    1       1019    1020    0.      0.      1.
$ ... 30 like lines cut
$ Referenced Material Records
$ Material Record : BEAM_1_MAT
$ Description of Material : Date: 12-Mar-23           Time: 13:10:32
MAT1     1       2.4+8           .4      1400.
$ Nodes of the Entire Model
GRID     1000            0.      0.      0.
GRID*    1001                            0.             .009999999776483
*        0.
GRID*    1002                            0.             .019999999552965
*        0.
GRID*    1003                            0.             .029999999329448
*        0.
GRID*    1004                            0.              .03999999910593
*        0.
GRID*    1005                            0.             .050000000745058
*        0.
GRID*    1006                            0.             .059999998658895
*        0.
GRID*    1007                            0.             .070000000298023
*        0.
GRID*    1008                            0.             .079999998211861
*        0.
GRID*    1009                            0.             .090000003576279
*        0.
GRID*    1010                            0.             .100000001490116
*        0.
GRID*    1011                            0.             .109999999403954
*        0.
GRID*    1012                            0.             .119999997317791
*        0.
GRID*    1013                            0.             .129999995231628
*        0.
GRID*    1014                            0.             .140000000596046
*        0.
GRID*    1015                            0.             .150000005960464
*        0.
GRID*    1016                            0.             .159999996423721
*        0.
GRID*    1017                            0.             .170000001788139
*        0.
GRID*    1018                            0.             .180000007152557
*        0.
GRID*    1019                            0.             .189999997615814
*        0.
GRID*    1020                            0.             .200000002980232
*        0.
$ ... 8 like lines cut
GRID     1025            0.      .25     0.
GRID*    1026                            0.             .259999990463257
*        0.
GRID*    1027                            0.             .270000010728836
*        0.
GRID*    1028                            0.             .280000001192093
*        0.
GRID*    1029                            0.              .28999999165535
*        0.
GRID*    1030                            0.             .300000011920929
*        0.
GRID*    1031                            0.             .310000002384186
*        0.
GRID*    1032                            0.             .319999992847443
*        0.
GRID*    1033                            0.             .330000013113022
*        0.
GRID*    1034                            0.             .340000003576279
*        0.
GRID*    1035                            0.             .349999994039536
*        0.
GRID*    1036                            0.             .360000014305115
*        0.
GRID*    1037                            0.             .370000004768372
*        0.
GRID*    1038                            0.             .379999995231628
*        0.
GRID*    1039                            0.             .389999985694885
*        0.
GRID*    1040                            0.             .400000005960464
*        0.
GRID*    1041                            0.             .409999996423721
*        0.
GRID*    1042                            0.             .419999986886978
*        0.
GRID*    1043                            0.             .430000007152557
*        0.
GRID*    1044                            0.             .439999997615814
*        0.
GRID*    1045                            0.             .449999988079071
*        0.
$ ... 8 like lines cut
GRID     1050            0.      .5      0.
$ Loads for Load Case : Default
$ Referenced Coordinate Frames
ENDDATA 6684012b
